51
CSD_code = REDHUD | q = 0 | S = 0 | Stoichiometry = C24H20Br2N4Os | MND = 6
Os       -0.00422118411449    2.16576415703936    2.47699479799381
Br        2.30377073606865    2.32068676065339    3.32728080186123
Br        0.08101501522249   -0.29320577411705    2.71540066420023
N         0.59108714180580    2.07478583941122    0.58223170326730
N         0.07639233316571    4.08240773433536    1.98140289336436
N        -0.75667627606015    2.43703416623003    4.26991920196241
N        -1.97040834964381    1.93964592915251    2.12803037684061
C         0.85183797886759    3.21833081002883   -0.02956017780441
C         1.30977658564996    3.39476468239810   -1.35475049256627
C         1.47626830831147    4.65842962350676   -1.84514199946671
C         1.19076475976861    5.79179462960434   -1.05574394277248
C         0.73155854953561    5.66804994030947    0.22566364046841
C         0.54928669784814    4.37976697681334    0.77283268140335
C        -0.43202791407941    5.07291585975617    2.83314994916635
C        -1.65798867153736    5.67350775860117    2.55010862252823
C        -2.19688220839957    6.59093895057337    3.43188272890063
C        -1.51875121065958    6.92513130957391    4.59229164835564
C        -0.29339278508627    6.34018336427112    4.86781379580784
C         0.25304133376782    5.41578504281353    3.99784313571310
C        -2.05697421560968    2.24753979099747    4.43035147108048
C        -2.78492010732758    2.35744224714174    5.63613323699742
C        -4.13233820055902    2.13744335304069    5.62979342223733
C        -4.81065465242444    1.82166568220989    4.43455461937257
C        -4.14790560507974    1.72097786645912    3.24386993668853
C        -2.75087917367285    1.92790583409172    3.20660345440083
C        -2.45354112005577    1.57001607960843    0.87078575531938
C        -2.92970518525971    0.27753108936644    0.64618646254134
C        -3.32562756284161   -0.09849287098503   -0.62298247289146
C        -3.26510765899221    0.80293285389378   -1.67326985583135
C        -2.80106641896465    2.08971736078561   -1.45182264679991
C        -2.39364855241251    2.47478806824326   -0.18944340206682
H         0.69926079664357    1.24038810315126    0.00393896103078
H        -0.25775412106038    2.72537384288819    5.11392895604200
H         1.53482539082695    2.52268186449555   -1.95089980661618
H         1.83703755367138    4.80202092247274   -2.85219918276717
H         1.34334454482560    6.77356069986291   -1.47720505785227
H         0.51863178366974    6.53367916649858    0.83512551147967
H        -2.18708415548662    5.40383041803423    1.64658940100832
H        -3.15093608280322    7.04547001878738    3.21003628800464
H        -1.94399470202918    7.64143521053569    5.27861058457023
H         0.24358191928448    6.60496777054031    5.76616052017733
H         1.20994986929399    4.95981427383596    4.20300591045738
H        -2.25556771178006    2.59995244978240    6.54595681480824
H        -4.69521292802414    2.20629457276110    6.54799340459643
H        -5.87755514248396    1.66121834787463    4.46724896131913
H        -4.67265468922699    1.49305953840021    2.32835393095409
H        -2.94471965387177   -0.42862035346235    1.46264273737166
H        -3.67793513057447   -1.10468291994094   -0.79165763897520
H        -3.57487165966373    0.50378218303600   -2.66296526629418
H        -2.75354619540901    2.79828398657637   -2.26558051278931
H        -2.03458207302558    3.47950478807199   -0.01389452680011

