65
CSD_code = REDKOD | q = 0 | S = 0 | Stoichiometry = C28H30O4Si2Ti | MND = 8
Ti        2.45942943043634    2.08172812859592    6.91700221400521
Si        5.64319886446891    3.08479648863145    5.43439593602290
Si       -0.19697594100893    3.38227694264864    5.07185949042133
O         6.23193184061637    2.59220330996422    6.88981678195800
O        -0.56385335669114    3.39792851998182    6.68664373775109
O         3.86897112296537    1.54271413409181    7.77248672863349
O         1.91716853720426    3.40418159116569    7.83788899897606
C         3.85468704376177    2.60119414373919    5.10824962648068
C         2.73668834020090    3.47362492833241    5.11928916448861
H         2.78823748007336    4.55453961514203    5.20092363804968
C         1.55527605494149    2.73066829288949    4.89020029561910
C         1.95345525489592    1.37263517176688    4.74176578743823
H         1.29950002481345    0.56365895210254    4.43573669425600
C         3.34982780524060    1.29791972037414    4.86979691513444
H         3.95688798710973    0.41296835299081    4.71584406040162
C         6.84376931342025    2.23031780667228    4.23731520471850
H         7.86274318017953    2.55280525358968    4.41939551801624
H         6.59575979379429    2.47454091881770    3.21083159068356
H         6.81790504915645    1.15067775057357    4.33948799280531
C         5.74480035119646    4.99491949536203    5.36406090261517
H         5.15053297787328    5.45021506529738    6.15449395519153
H         5.39922266555658    5.39092062601473    4.41507214600238
H         6.77031971249142    5.32494962738394    5.50053853298360
C        -1.49507593438495    2.17631860654887    4.38356439120374
H        -1.48672464510537    1.22743465256482    4.91071731662187
H        -1.30892228001421    1.97721108413014    3.33454931490298
H        -2.49442268620728    2.58922697424909    4.46821232793860
C        -0.35292499232760    5.14509655438516    4.35361541163202
H         0.25835365346366    5.85174658535621    4.90957865387469
H        -1.38024876382279    5.49213260839048    4.40962917415365
H        -0.04813422560740    5.18812142499733    3.31376343636916
C         1.16342567796628    0.54599630805573    7.46578247048974
H         0.15613379543901    0.74906621220395    7.08100578897697
H         1.52935457072961   -0.42146491616152    7.08731962002551
C         1.18091694182300    0.57699967434301    8.93572744329015
C         2.08907619358056   -0.20085917437544    9.66672562756675
H         2.77542147296578   -0.84944287528498    9.13328332975011
C         2.12943434002040   -0.14152723764181   11.04653301330920
H         2.83985511104513   -0.74854347746256   11.58973003875972
C         1.26482926789336    0.69369454187753   11.73807220604732
H         1.30137843178749    0.74296020273651   12.81621389841322
C         0.34877018981864    1.45951503508103   11.03300733760118
H        -0.33533140605023    2.10657664443096   11.56398554087060
C         0.29715293272972    1.39397071208177    9.65393788934423
H        -0.43787472859749    1.98025050067591    9.11535209153140
C        -0.25559022525601    4.31888034278473    7.64437466990335
C        -1.19090437168211    5.25038917687649    8.05672960778790
H        -2.16154036289079    5.25056806944313    7.58455076526780
C        -0.88221216945261    6.15745136804574    9.05839605365009
H        -1.62111813185006    6.87811290225408    9.37283344330116
C         0.36920102630059    6.13713589916453    9.64918358855377
H         0.61090846897137    6.84222813269468   10.42993230077510
C         1.31704794111631    5.21532487076372    9.24452631394572
H         2.30040704709742    5.17808925092752    9.69377157481445
C         1.02474899879046    4.29395262633835    8.23726072578576
C         5.78213368746877    2.88324773628265    8.14164001783865
C         6.51938781465106    3.70847068549433    8.97343111250732
H         7.44980243178445    4.11264834068620    8.60451893511913
C         6.06373522855581    4.00536996786586   10.24710193724398
H         6.64817576081054    4.64587701211737   10.88967847604394
C         4.85727988997236    3.48628363096092   10.68583008875713
H         4.49378860985480    3.72247245238550   11.67501211892329
C         4.10827298160426    2.66186154995431    9.86524902825465
H         3.16479527330324    2.24711508349360   10.19771961359381
C         4.55865365098698    2.33915542416329    8.58225739260707

