67
CSD_code = REDKUI | q = 0 | S = 0 | Stoichiometry = C32H28BrCl2NP2Pd | MND = 4
Pd       16.03703111682524    6.70859738451579    5.87295511311828
Br       17.67904115151885    7.31823630520202   13.22555227322070
N        13.73323288496467    6.94997479270398    8.59958432014047
P        14.87099152111143    8.47361430168075    6.55250304106464
P        14.83369311419322    5.09719950533913    6.81729681527500
Cl       17.31090566983212    8.29632025563870    4.83837082282471
Cl       17.28348368290173    4.96451316036152    5.08654237617777
C        13.47421819567578    8.10108023503511    7.77070657774270
H        13.25320708217605    8.97523052407362    8.38859671396760
H        12.58588767122146    7.89111741190755    7.16447984652296
C        13.45662123711219    5.68027586846257    7.97496734400812
H        12.56072076604900    5.79536901318937    7.35460069457946
H        13.23910874955938    4.92279582297717    8.73249501237600
C        14.63358960591503    7.03302653793645    9.64927251796293
C        15.09031008817836    5.88668001349675   10.31489846158166
H        14.76624723896547    4.90288224994354   10.02215319724571
C        15.97859911562812    5.96805683208597   11.36719536163244
H        16.32517877696850    5.06462372485804   11.84469605820357
C        15.95439465670903    8.35716052986269   11.19734254955015
H        16.28185431049623    9.32549604797174   11.54281899939113
C        15.06738919377109    8.27117902860629   10.14459345164301
H        14.72464824171761    9.19692749425057    9.71518489714074
C        15.94133582958463    9.67161908247349    7.39483739009283
C        15.70235734793031   11.03624004560625    7.48464353979621
H        14.83827595590083   11.47385500064106    7.00752470278653
C        16.59766077838555   11.84322594518915    8.16742267594891
H        16.41683653738758   12.90633147472949    8.23023317472145
C        17.72316712382728   11.29630891166860    8.75910015995429
H        18.41717407834042   11.93284843437789    9.28737466898247
C        17.97169481723846    9.93519046221675    8.65855787290049
H        18.85927537982680    9.51213926594697    9.10441997785452
C        17.08752379542124    9.12665849967979    7.97450289049646
H        17.28696256127170    8.05682444907541    7.85966480619556
C        13.92531735029348    9.26123602053185    5.22306739962431
C        14.07812950669707    8.71745722917695    3.94962992024322
H        14.78676572264747    7.89959438818896    3.79911852251207
C        13.35533338182195    9.22657487061240    2.88641777289167
H        13.48234832574484    8.80995495860755    1.89860643943290
C        12.47105322282384   10.27353811623065    3.09011343069130
H        11.91248104602889   10.67897500321970    2.25969782881122
C        12.29301405654027   10.79659083343488    4.36110974485255
H        11.59091364883401   11.60205112028413    4.52007782693431
C        13.00797764024427   10.28829636641690    5.43035786204036
H        12.84363217987641   10.68364660117233    6.42308248559512
C        15.87653998748177    4.00231567114551    7.81993339922304
C        17.05153227327345    4.58479766097638    8.29611013626493
H        17.28848136668312    5.61522301916911    8.01526722557205
C        17.91592488899693    3.85754314640836    9.08821822845399
H        18.82610011228303    4.30902687057183    9.45322791739925
C        17.61775532829633    2.53977237231359    9.40281947924475
H        18.29576861328955    1.96586143444873   10.01670280194926
C        16.46181319676257    1.95335969051648    8.91705576610566
H        16.24068942071544    0.92172822481574    9.14848812777808
C        15.58666125027030    2.67948733465923    8.12589824665098
H        14.69770331010122    2.20847236479575    7.73398890197308
C        13.86049028655211    4.14905389972976    5.61849111803226
C        12.91143628468897    3.19410373190243    5.97444074825722
H        12.73420442974113    2.95974476052814    7.01490524511332
C        12.18140263908270    2.55146820584501    4.99109443371784
H        11.45426253199582    1.80175201462025    5.26702004151684
C        12.37663225092098    2.86921863514665    3.65631353295088
H        11.80633191088191    2.35957844708430    2.89409488181942
C        13.29333551386956    3.84524932772399    3.30057596288800
H        13.43427564873511    4.10240152655006    2.26154219631197
C        14.03091787164854    4.48783453379818    4.27789028639637
H        14.76476398236773    5.25119025009287    4.00809666928569
C        16.42459254313852    7.20380275769655   11.79805711431406

