73
CSD_code = REDLAQ | q = 0 | S = 0 | Stoichiometry = C30H28N6NiO8 | MND = 6
Ni        0.76445327331057    1.78335047637667   20.59744140559741
C         4.29844475166207    3.27891701438120   18.53810470489880
O         2.75747302977860   -3.26711930252927   21.38017628692105
O         1.98259430504647    2.75309787343189   18.81855623927856
O         1.13376972841110   -3.20804153424716   22.83030437606352
C         3.16592687728659    2.53521789610499   19.11691099539975
N         3.48616043784253    1.54943389123533   19.98478898512572
O         0.69282198519885    0.81188173801319   22.67615822653655
C         4.16150171434929    3.88174544915704   17.26551034905064
C         5.26130488601896    4.56464067495653   16.72591048338404
H         5.16006654363106    5.01259210900332   15.74769492887806
N         3.01872840199897    3.75035330538828   16.54919505708064
N         2.52089744670384    0.85269965143342   20.68000583325614
C         2.80942411766940   -0.35511642990763   21.09103909244045
C         4.15242883405342   -0.92976194754103   20.72069188612066
H         4.34763306596040   -0.78816884564507   19.65830956078736
H         4.17414107615623   -1.99140471456242   20.93522974200021
H         4.93862139341795   -0.44045173720128   21.29944773349980
C         1.91079103708529   -1.09839857898506   21.92669953763062
C         2.00694749052803   -2.53235025385873   21.99641211201505
C         0.20013091064825   -2.58547823977829   23.56395410920510
C        -0.61293863483280   -3.52650902738607   24.39387068135143
H         0.04464678602927   -4.12385345059260   25.02257067195814
H        -1.31428669496012   -2.97861310372720   25.01452549743811
H        -1.15882495245247   -4.20992073625934   23.74553469477962
C         0.04430890889794   -1.25496732562912   23.52201318974953
C         0.87864876833033   -0.42530197255714   22.67282096931083
C         6.56403162749831    4.11844024158900   18.68828446595910
H         7.48137933824104    4.22879778836302   19.24510441155417
C         6.44153294056060    4.67813188833460   17.42184435275091
H         7.27122479197838    5.21603268099656   16.98782433039381
C         5.50142859676472    3.42776302555204   19.23070265000685
H         5.59590522230606    3.03151127801111   20.23176008142807
H         2.20408671821467    3.41669177885605   17.04514306255325
H         2.89634819173593    4.30613329400509   15.72205418875070
H         4.45739056925051    1.34435449446612   20.18589626938466
H        -0.71438300445630   -0.76055544438127   24.10534142435922
C         0.63686900272365    5.16935305976525   22.78226555706467
O        -4.51270376019697    1.35033671207371   18.79943689084637
O         1.40466811353243    3.27105716252788   21.56673311019739
O        -3.57613831818078   -0.53112614871385   18.24091704612697
C         0.47451246223961    4.04875496340065   21.85955576238610
N        -0.74610926008708    3.81530262540385   21.33429073219866
O         0.07638956593314    0.39514181790202   19.69353178078641
C         1.60674982102606    5.08201620439486   23.81016927517264
C         1.68678310618305    6.13939186770260   24.73162429985402
H         2.41414363225620    6.07186362386914   25.52756236309278
N         2.44900108602558    4.02937793490202   23.91107143200137
N        -0.89327974321571    2.66102429157228   20.60210834174773
C        -2.06358523283514    2.32759877210825   20.12739814423804
C        -3.22061346938619    3.25758416240391   20.37224131965205
H        -3.42112895825387    3.33296072303680   21.44257557675361
H        -4.11234128144937    2.88549333728842   19.88191848537268
H        -2.99721922150107    4.24843876362009   19.97443182541771
C        -2.21467939210949    1.08819747645077   19.42252063211284
C        -3.48391018456914    0.70631933944472   18.84031351156413
C        -2.54902970579378   -1.38710143749450   18.15771270871006
C        -2.90030110039169   -2.66837976690116   17.47867821778025
H        -3.75962006387847   -3.12004703703672   17.97047354569208
H        -3.17980973440459   -2.47114623484976   16.44500952072361
H        -2.06041864147812   -3.35425761400016   17.50299731874342
C        -1.33744129271403   -1.07451659659795   18.64470366106956
C        -1.10341016199623    0.19573157734625   19.29248663039445
C        -0.05709082694632    7.33751766908807   23.59776719779957
H        -0.68232723017888    8.21170028931772   23.50919242685693
C         0.87640187637528    7.24333061369203   24.62632183372549
H         0.96695320623340    8.04524869529896   25.34347330605550
C        -0.17479322369641    6.30481196011396   22.69580958431765
H        -0.88326697280412    6.39097982975790   21.88454450211049
H         2.29051045428898    3.22667415863771   23.31834746825732
H         2.95283314905356    3.89745461170689   24.77038459481027
H        -1.56446096705583    4.35931481873382   21.58087471648744
H        -0.50389721259261   -1.75197613084360   18.57772409298422

