67
CSD_code = REDMAP | q = 0 | S = 0 | Stoichiometry = C20H44NiP2 | MND = 4
Ni        0.35429377817541    2.62891285224281   10.69454792748872
P         0.65180610945019    3.14442594432691    8.56485730301533
P         1.67757760757422    0.85877650513763   10.62107886461770
C        -0.96290272809190    3.83468525508005   11.61627299583615
C        -0.35972960182163    2.99787384035869   12.53651742478967
C         2.05662974625017    2.01543818363014    8.07254614181850
C         1.98073031560885    0.66268078674833    8.78799380072632
C         1.50999884632223    4.83837787053463    8.46737209746402
C         2.43571230935448    5.10667752985063    7.28225810335472
C         0.44054410419158    5.92838771573527    8.54118868645985
C         2.33331444402412    4.88867941392123    9.76420095108170
C        -0.57084165074485    2.96236359853337    7.12178464955324
C        -0.83111245212997    1.46434069616007    6.94974725367585
C        -0.12544520644103    3.54522016711347    5.78563010920318
C        -1.88463340160244    3.60260079932866    7.57623015238288
C         3.41165338803632    0.64496882023371   11.36825000514238
C         4.32952797028985    1.63195779944903   10.64394853702532
C         3.31905989220840    1.09736174131599   12.82742847981912
C         4.01558727384263   -0.75166565712399   11.27844702033255
C         0.63331828221440   -0.69106149003760   10.97187560580634
C        -0.75786078583860   -0.30163346687639   10.44728093142382
C         1.05847114044534   -2.00570384532140   10.32027108359420
C         0.53464658451800   -0.87672582035815   12.48616410802966
H         2.08467218571829    1.87132665452752    6.98911097258298
H         2.97563222089097    2.52010348745996    8.36963664085886
H         2.88689236178335    0.08101031840545    8.59855291933193
H         1.13236246051370    0.10344392737425    8.39423800494702
H         1.88424804960018    5.24494813219398    6.35833593970002
H         3.15558815600519    4.30536817637305    7.13590079342103
H         2.99396819340565    6.02343531746369    7.47477508911108
H         0.89968594924365    6.89242480961747    8.76041976984211
H        -0.27192442053575    5.69918922206002    9.33154834077683
H        -0.09511293688832    6.02513126613051    7.60023567083908
H         2.52247532601011    5.91797417558894   10.06577618254704
H         3.29642669019229    4.39967589000137    9.63562780415512
H         1.78897079879376    4.38539712251007   10.58043802238301
H        -1.67270362391665    1.30763467263352    6.27502888862620
H        -1.08403525477632    1.02306354461063    7.91114925373726
H         0.03049486157666    0.94948777924517    6.53103832334622
H         0.86545140129651    3.19204056286708    5.50794704089270
H        -0.11931397955185    4.63122611308006    5.80756648568915
H        -0.82226280839629    3.23565566981495    5.00617412684492
H        -1.80837278191273    4.68353906950292    7.63828560024575
H        -2.15508346842785    3.22243007549404    8.56096709035286
H        -2.68677147016023    3.35906216259226    6.88012376547421
H         5.28654010904578    1.69922638746423   11.16134078613856
H         3.87713399598144    2.62107074128390   10.64335358114767
H         4.52668836327525    1.32397006328693    9.61973010760526
H         2.75166569833710    0.39786432950710   13.43316963515154
H         2.82845716680192    2.06900448360600   12.87841465279980
H         4.31466003027424    1.19041999208640   13.26038133774553
H         5.06200826825157   -0.71302971944210   11.58263083991652
H         3.97684294666228   -1.13726664399304   10.26181776647091
H         3.50750639938625   -1.44808934148914   11.93933435099042
H        -0.84228285031430   -0.49571879413969    9.38031803955102
H        -0.94575389013658    0.77012143930709   10.62629514501593
H        -1.53765849015332   -0.87202732538467   10.95004589957706
H         0.25983699320172   -2.73641792087795   10.45261819531654
H         1.95589263270116   -2.41300361337372   10.77382977809608
H         1.23274615247099   -1.89548646386956    9.25291328807239
H         0.31180181616594    0.07502571273519   12.96503551804197
H         1.45876769537066   -1.27216961131792   12.90001956719809
H        -0.26293102438182   -1.57921056935980   12.72845112613811
H        -0.66450913713300    4.87852073010506   11.55647211942898
H        -1.97734313106941    3.63070638980619   11.27963036063443
H        -0.90701957787670    2.14692874177661   12.93475417361319
H         0.42371595683611    3.38085360275434   13.18737477299879

