53
CSD_code = REDNAP | q = 0 | S = 0 | Stoichiometry = C12H34F2P4Ru | MND = 6
Ru        4.20328665859657    5.30760082174218    7.24865377083170
P         2.57377504057795    5.91250562147557    8.70421883422704
P         5.62870632652278    6.10281639434391    8.83870397476482
P         2.79609441426331    4.51807548991446    5.65349981350833
P         5.84098607420610    4.82143603021535    5.75739812141932
F         4.03204813245505    7.22193449269548    6.34328246879026
F         5.43737033449767    9.17250723967251    6.15046922915045
C         3.34146947580696    6.24568587219201   10.35523982093869
C         4.64627338813382    6.99370667505357   10.13137768835084
C         3.75029561254531    4.24004090001306    4.08889326681320
C         5.13596305298932    3.72391158060588    4.44338876054556
C         1.16682444997668    4.84680076052822    9.20342160167736
C         1.71201059837247    7.49798242319170    8.39013541331552
C         6.55719355966454    4.90008754426585    9.86577739425995
C         6.93131999953138    7.34567938103788    8.50790674784064
C         1.95604780419253    2.90071831767973    5.85323915626846
C         1.42701441470521    5.55132377086475    5.00923938870646
C         7.37880228976902    3.90757196213913    6.15975192464377
C         6.50353983008381    6.20421899943308    4.75936292740490
H         4.30261452163953    3.90222421901931    7.87669169948538
H         4.84331171211520    8.39080401046145    6.20128449420188
H         2.65084197618270    6.80533254785095   10.99510135033376
H         3.53915498519772    5.27099127911163   10.81419847066821
H         5.22889041901952    7.09274520518639   11.05328564081353
H         4.44359490789236    7.99515501447260    9.73592988152774
H         3.20986317074703    3.55414713091410    3.42799149762157
H         3.82991095176608    5.21430011503833    3.59425401969051
H         5.79766730588779    3.69133931155289    3.57119735692627
H         5.06595862661741    2.71957518023142    4.87505311659217
H         1.55280299942708    3.86395565154969    9.46888378646437
H         0.47880853162161    4.74305608012818    8.36470803018426
H         0.64165056099470    5.28337528014015   10.05297231725465
H         1.09408933940747    7.39003834149658    7.49970457852442
H         2.45842160421448    8.26533297316268    8.18926996994928
H         1.09398610452051    7.78176114893601    9.24214163318732
H         5.85262469043760    4.19081804240040   10.29604167414135
H         7.10997579256601    5.41109823643654   10.65401553257237
H         7.24628646397452    4.35116193027491    9.22656834148782
H         6.50873898548400    8.16749971940525    7.93215255032545
H         7.72886779852621    6.88237481563716    7.92644457360642
H         7.33581099136412    7.72408172150761    9.44695851025430
H         2.71091704972743    2.14006401148118    6.04430220546792
H         1.38335247065538    2.64902158115773    4.96065770264219
H         1.29493720634143    2.95068686468362    6.71658496566135
H         1.80991544299954    6.56059928357854    4.86137375357266
H         0.62229782236139    5.58092422309759    5.74403980387111
H         1.05143502770477    5.15097012618575    4.06738338235631
H         7.11637665607412    3.01577991505444    6.72651550825915
H         8.02343755728858    4.53979872144209    6.76954679839357
H         7.90333037665277    3.62790399696126    5.24609929527156
H         5.67114831910440    6.72888575535959    4.29184666266321
H         7.19532361627719    5.83982213934471    3.99975314902804
H         7.00923455831632    6.90747114968004    5.42028744354917

