45
CSD_code = REDPUN | q = 0 | S = 0 | Stoichiometry = C16H24ClNO2Ru | MND = 9
Ru        7.13545099159965    0.38969273651283   19.78494809400704
Cl        7.91152235864707    0.45633753667432   17.57818563899809
O         9.03508402994174    0.96121206664468   20.37961569885125
O        10.44551346045103    2.65267808860517   20.57396751970949
N         7.02751729262827    2.49801488868017   19.65353766733763
C         7.12570626057420   -1.00934297804571   21.59222298053860
C         6.03930641489103   -0.12945728555326   21.72801716426682
H         5.89458315446575    0.41160282707447   22.65601030263384
C         5.09411731213035    0.00915762487838   20.67942182057007
H         4.22425994316216    0.64257343136494   20.83510055913658
C         5.16683454429942   -0.77597875184290   19.50666549226505
C         6.27131178078927   -1.66056849063926   19.38486702165948
H         6.35038558380461   -2.29345379666136   18.50825965887131
C         7.23240724365657   -1.77776255884472   20.40043172546681
H         8.03662663029870   -2.49836853444737   20.30347757817506
C         8.16405281648681   -1.13671436422532   22.66006287210146
H         8.43829523126331   -2.17875218648012   22.81380679178524
H         9.05901799930214   -0.59684270738351   22.34255891546466
H         7.82049498527337   -0.71124015279790   23.60043546585613
C         4.04529182456752   -0.75274014099252   18.49367745627458
H         3.49944744775126    0.19120550719500   18.61503209901204
C         3.08063414770488   -1.90566831436159   18.79849113779969
H         2.25516665710277   -1.89605587130551   18.09123413598059
H         3.59450471966816   -2.86106448662058   18.71636800680598
H         2.67650072981555   -1.81767563953746   19.80529180654036
C         4.55279649749582   -0.83352965413925   17.05341857637570
H         3.76185279508934   -0.54751700858117   16.36507434331655
H         5.40329416182626   -0.16949608224081   16.90896530372773
H         4.86267349853217   -1.84532343240675   16.80556422605859
C         9.41050195735934    2.16022864048780   20.17884285737884
C         8.38097740464413    3.02932679137646   19.37384037791736
H         8.62116474459667    2.91604132973208   18.31233746389510
C         8.39506194866593    4.48146141972327   19.85965240545847
H         9.35747959799557    4.67047859313971   20.33677645154178
H         8.27835677942861    5.18473809728685   19.03634853611343
C         7.22726300716946    4.56808115510738   20.85445003345046
H         6.44534476438816    5.23597416585624   20.49216490371478
H         7.54668313545664    4.92715387259686   21.83022731280436
C         6.71200393338900    3.12471469836169   20.94671207589274
H         7.26973863607653    2.59185812420059   21.72391963475866
H         5.64371892383329    3.06351404928212   21.16003981008912
C         6.07718457266989    2.92485780906994   18.62243015986987
H         6.36302923742435    2.46557678960640   17.67463086928350
H         6.07411223615008    4.01058651822684   18.50970263555768
H         5.07412860753340    2.59068567542310   18.89211441268688

