89
CSD_code = REDQIC | q = 0 | S = 0 | Stoichiometry = C44H36N4P2PtSe2 | MND = 4
Pt        9.27528639122663    6.65388672524969    7.26503262888291
Se        9.64889805599532    8.97306040859536    8.19269335713262
P         7.00372810130923    6.96292315610488    7.44853123356941
N         8.42418878328465   11.07749428135700    6.96274689336323
N         8.20105606312038    8.98149616739849    5.87747067996571
C         8.63682828788693    9.76913956355725    6.87074729250451
C         7.74644913871543   11.64494811840544    5.98995613903980
H         7.57697321642878   12.71021595432180    6.09020280673544
C         7.27899156657117   10.92915692102633    4.89179339511683
H         6.74280279990060   11.40310660770942    4.08693814016316
C         7.53872607069636    9.56875584674314    4.89631958048264
H         7.20804187852519    8.92179960050795    4.09158671311676
C         6.12974625869496    8.52277985014789    7.79821450082812
C         6.37925795689334    9.13770027456087    9.02280949326087
H         7.05267573492569    8.66507787865068    9.72685522627611
C         5.78009377658001   10.34381169792058    9.33017288481059
H         5.99013259280185   10.82313523889861   10.27437605889274
C         4.91771710011787   10.93907279931362    8.42375107812896
H         4.45289131712974   11.88479889328199    8.66007665439144
C         4.65144925767076   10.32131427025937    7.21348137403672
H         3.97458849670549   10.78086530801678    6.50734166872297
C         5.25763441849474    9.11857383748029    6.89625123215526
H         5.05829895077160    8.64461039375677    5.94465014653156
C         6.15353504221414    6.32071457570313    5.97386717451591
C         6.88419764496991    6.28958918512927    4.78901004125600
H         7.91824023857654    6.62002871904911    4.80110928597403
C         6.30138557648917    5.83649320189699    3.62024233208179
H         6.87438092467099    5.81338483171929    2.70484920208423
C         4.98554307387358    5.40329115858025    3.62786900828668
H         4.52802935008980    5.04442721631610    2.71756971492350
C         4.25977906020330    5.41724838467232    4.80745365157680
H         3.23806970777427    5.06584381988467    4.81706021932141
C         4.83744572183947    5.87399930166300    5.97905308280769
H         4.26612015751956    5.86847650289088    6.89513355283274
C         6.36812394899310    5.99891822514588    8.86001623032956
C         5.06651388959029    6.12214755708740    9.33951006528200
H         4.38250806291345    6.82735379007893    8.88651612850075
C         4.65492402466683    5.36347972464790   10.41942893367591
H         3.64204508851777    5.45634168287055   10.78433061830355
C         5.53673917822287    4.49297309862187   11.04090211370360
H         5.20684777140226    3.90260818538707   11.88321645318361
C         6.84373992524222    4.39833173698346   10.59444603420108
H         7.54234516920522    3.74015305077916   11.09101776969831
C         7.25633367010417    5.15341383235975    9.51219635615239
H         8.28486333603390    5.10989213375637    9.16986942149286
Se        8.90019881696632    4.33494753884486    6.33807036378169
P        11.54617762433269    6.34506914151894    7.08208207493725
N        10.12523590061924    2.23058293232853    7.56776447950835
N        10.34864461735811    4.32658646537342    8.65297317031145
C         9.91280258859977    3.53898447762360    7.65969300764144
C        10.80292373532254    1.66307252639493    8.54056154860471
H        10.97227185491969    0.59777724408281    8.44035392260951
C        11.27054176927285    2.37884599776379    9.63866635236397
H        11.80671873690376    1.90484825509458   10.44350662108656
C        11.01095700011978    3.73927651371330    9.63411282915984
H        11.34168531829914    4.38620980841496   10.43884546396053
C        12.42004020964370    4.78517297194718    6.73234015066186
C        12.17046961746699    4.17030792216003    5.50772950311065
H        11.49707964413486    4.64299895077558    4.80370198425837
C        12.76952128320287    2.96415122483604    5.20033626538227
H        12.55943014402351    2.48486779016917    4.25612468516112
C        13.63185874191342    2.36880372269827    6.10673919438124
H        14.09661678387411    1.42305304995255    5.87038353158131
C        13.89818888442812    2.98651806474551    7.31701981568265
H        14.57502600956379    2.52690347464180    8.02314013484329
C        13.29210232754495    4.18929511772607    7.63428551723505
H        13.49146868503581    4.66321056937678    8.58590542106306
C        12.39633460405814    6.98722810870287    8.55676686303963
C        11.66564018433578    7.01845803291514    9.74159699284815
H        10.63157218672808    6.68809833214091    9.72948864857001
C        12.24846439565371    7.47155116096159   10.91035934750360
H        11.67546809773311    7.49470345385142   11.82575077660112
C        13.56434948807613    7.90462369301581   10.90274581962113
H        14.02189585544344    8.26342348936593   11.81305313971991
C        14.29014598985297    7.89054452003044    9.72318043827461
H        15.31188955594584    8.24184584931236    9.71357920248010
C        13.71246315739239    7.43380727625707    8.55158946543466
H        14.28379074765958    7.43927261871313    7.63550953417562
C        12.18182077843780    7.30911030006989    5.67065453267882
C        13.48341527765970    7.18576124947555    5.19115424671223
H        14.16732231748443    6.48040313622017    5.64406188298542
C        13.89513402933495    7.94454519618435    4.11136811157530
H        14.90800889158936    7.85160067326913    3.74647496529940
C        13.01345754851056    8.81528745332160    3.49002860606951
H        13.34344794610722    9.40573489017744    2.64781060915485
C        11.70645986391910    8.91003941430460    3.93647389602171
H        11.00795519348304    9.56838570551446    3.43998361081134
C        11.29373554927769    8.15483536233600    5.01859074980297
H        10.26520127021181    8.19842261518994    5.36087595500921

