55
CSD_code = REDQOI | q = 0 | S = 0 | Stoichiometry = C26H21N4PPdSe2 | MND = 4
Pd        3.02187216263025    0.74740992986013   13.23486816396810
Se        3.98783678377283    2.27351895176294   11.60821206833006
Se        1.96727087327728   -1.21431821235877   14.27746503679739
P         3.69146496858925    1.63312137480496   15.16235089473558
N         3.11576819530539    0.93536293343219    9.29926639468096
N         2.22707191337947    0.26815916011572   11.38653512321874
N         4.20390198172742   -1.46988551301833   12.68588726945887
N         2.82984288264983   -3.39860127409030   12.82041447690654
C         3.02039956023140    1.04068494202241   10.61520815841527
C         2.36200839569460    0.02600302459826    8.71467229557309
H         2.45635706371040   -0.04200089304285    7.63810602909399
C         1.49976162589444   -0.80442887460658    9.42461319379644
H         0.88348901567302   -1.53957209031987    8.93594016393528
C         1.47907450453367   -0.65110523414473   10.80408316774998
H         0.85877254260823   -1.26890712585761   11.44749146565498
C         3.12583646228195   -2.14617314822383   13.13787949979788
C         4.99942295689815   -2.10259920614507   11.84031112910344
H         5.85356548206072   -1.53918308575954   11.48068776416765
C         4.75663004077494   -3.40803801993669   11.43587470995653
H         5.40396533142447   -3.91508805390568   10.74048673696208
C         3.63498929746982   -4.02026922451173   11.98228469859593
H         3.36394842436071   -5.03997823336217   11.73709615035798
C         4.86457463267297    0.76899514129697   16.23457947109230
C         5.32474957040250   -0.47918104490391   15.83325553654230
H         4.97423848073634   -0.88869878135757   14.89055974791028
C         6.22648308221961   -1.16806310659651   16.62425204087247
H         6.58322796741043   -2.14010039812659   16.31740172699483
C         6.67202771960747   -0.60704140282394   17.80992966758122
H         7.37314679459645   -1.14519751327258   18.43060917509235
C         6.23203467628474    0.64948356453146   18.19895474197878
H         6.59513917970176    1.08785253707514   19.11708349359898
C         5.33353896015537    1.34525037485848   17.41197847393492
H         5.00187508260816    2.33507761362328   17.69592379065839
C         2.12643694098667    1.84713844054528   16.06013455153142
C         1.93508881311060    1.62829643463195   17.41663730527685
H         2.76264323392775    1.31884968110285   18.03851791740782
C         0.67131087635999    1.78828682331695   17.96174145369375
H         0.51804750586675    1.61238808598468   19.01627312863754
C        -0.39407978589680    2.16105601894096   17.16067857745327
H        -1.37689293609551    2.27826317540650   17.59234561296515
C        -0.20835992276193    2.36927820518563   15.80124584382564
H        -1.04527144162565    2.64687738693741   15.17769387031887
C         1.04642435361164    2.20643060980893   15.24844528567712
H         1.20977152649109    2.35389862238065   14.16865302642976
C         4.39815685273991    3.30692592764900   15.08028410263317
C         3.78743663840144    4.42292922965958   15.63765116622823
H         2.84514281240436    4.32203626978169   16.15858653160583
C         4.39101362858925    5.66311390205987   15.51597814584168
H         3.91643494768893    6.53314280088433   15.94584095364143
C         5.59367959445976    5.79172635686893   14.84214897183745
H         6.05543634180489    6.76314776405161   14.74598329439942
C         6.20294563922015    4.67837841754257   14.28288087597255
H         7.13692277228103    4.78115062227778   13.75131022133776
C         5.60675992675350    3.43826141530092   14.39981490851243
H         6.06176507026520    2.55693469833278   13.95979179754481

