64
CSD_code = REDREX | q = 1 | S = 0 | Stoichiometry = C25H31ClN4OReSi(1+) | MND = 6
Re       -2.25640431608953   -3.25237934723253    3.26127828448407
Cl       -4.46828315269025   -3.78791634663508    3.67145796597169
Si       -2.82958546774192   -5.28072350785538    0.52017255145574
O        -2.31053359066268   -4.31255628573771    1.69192055105529
N        -2.12843359622452   -2.11670284476412    4.59438199302736
N        -1.67939378186254   -4.96069336393605    4.41997610037100
N        -3.14190237484886   -1.60941440528577    1.93301997826117
H        -2.77583757297750   -1.73084647783059    0.98845235220785
H        -4.13293139679567   -1.87267158931239    1.93720579412343
N        -0.12170781466671   -2.83903706357432    2.66994920705578
C        -2.18499698603684   -1.14949702053006    5.50516466298688
C        -1.21281053990717   -0.12925456058189    5.56609264911080
H        -0.39039370140522   -0.15437329589871    4.86834965250719
C        -1.33947283824623    0.88945375624203    6.48349796272994
H        -0.59539781684944    1.67015836116174    6.52000729584481
C        -2.41657904123918    0.91958582560669    7.35975681669550
H        -2.50556271799035    1.72133454413612    8.07585206113652
C        -3.37983650753313   -0.08004751030911    7.31308905516855
H        -4.21814119015308   -0.05230725543919    7.99207915689947
C        -3.27407806332997   -1.10772217821098    6.40381400181498
H        -4.01868663283404   -1.88575712489801    6.33604873325205
C        -2.16771686296641   -5.17001636856368    5.64618679975382
H        -2.70707414219790   -4.34799351449000    6.09653280122563
C        -2.01410456575486   -6.37139242672465    6.31302760600196
H        -2.43531559687542   -6.49316698787397    7.29766940169599
C        -1.32967041252891   -7.40579338421268    5.69315750969735
H        -1.20502960329516   -8.35966723832027    6.18091580893656
C        -0.81302408951843   -7.18186446402351    4.42637773713064
H        -0.27078416045444   -7.95144438982487    3.90077743028766
C        -1.00968761764930   -5.95073987849643    3.82875595793838
H        -0.63136282381238   -5.75752510648915    2.83403810229814
C        -2.98171310033850   -0.26420246611584    2.39180808186391
C        -3.91875669276279    0.28032243996210    3.26064630351712
H        -4.77776768046447   -0.30478203853424    3.55169862186783
C        -3.73558968950502    1.55794969390924    3.75682770640773
H        -4.46537953907101    1.97890651214538    4.42993373588135
C        -2.62305697808591    2.29556274586891    3.38802939808745
H        -2.48453248955644    3.29345590666831    3.77223624901948
C        -1.69166255937085    1.75340083101077    2.51872442591604
H        -0.82793171336495    2.32854717218173    2.22348090065170
C        -1.86713577689703    0.47506057323479    2.01919326613702
H        -1.14043552591977    0.04946124271318    1.34177147522559
C         0.23235052926252   -2.89302076686164    1.38897510742025
H        -0.54366161683808   -3.16894020200655    0.68809338343331
C         1.52226992129768   -2.64482882336947    0.95296272798189
H         1.75550749643184   -2.70335049271312   -0.09795052588387
C         2.49400693436810   -2.32444448293370    1.88756732026882
H         3.50937564090894   -2.12324105184600    1.58400069875270
C         2.12707766103696   -2.27574720229582    3.22466951751403
H         2.84748868283826   -2.03870960997246    3.99066468479980
C         0.81460021588443   -2.54028118732340    3.57132312631085
H         0.49365882838547   -2.51758613569077    4.60331724025409
C        -3.37058732192397   -6.93956600249665    1.29322762608668
H        -2.52232795111824   -7.54476090756185    1.60206673489848
H        -3.94390650895506   -7.51824704389354    0.57754404029906
H        -3.99873809410443   -6.77722670280873    2.16469946510904
C        -1.40236938073724   -5.55473475548827   -0.71859437495015
H        -0.47932213100705   -5.85991840692702   -0.23233051236934
H        -1.18877129992415   -4.66681319139044   -1.30744572994992
H        -1.67728627922682   -6.33925464663046   -1.41379583726136
C        -4.30029301575778   -4.43280180042175   -0.35938229591892
H        -5.09467876954742   -4.19760725945618    0.34344588180471
H        -4.71393894511318   -5.09830329973752   -1.10881108381697
H        -4.01345387600758   -3.51382719133909   -0.86540334048119

