42
CSD_code = REDTUQ | q = 0 | S = 0 | Stoichiometry = C18H21NOZr | MND = 13
Zr        3.65176069485292    1.89739619250132   -6.29811078769669
O         1.96060117998747    1.12079030236923   -6.83523619485507
N         2.67591133526503    0.71005596819068   -7.97310550549727
C         5.45280205195352    1.25610533555699   -7.48688504833985
H         5.43444276043193    1.64957372764312   -8.51638695136374
H         5.58132907735162    0.16519601660300   -7.57757723697808
H         6.38078309628608    1.63542971724357   -7.02760419222728
C         2.75867414377337   -0.75345102471731   -8.01552116946670
H         1.75195508942666   -1.19098078719704   -8.04642842096259
H         3.27504520196040   -1.10369530459685   -7.11731608520005
H         3.31080500752081   -1.06618852087124   -8.90088358073709
C         2.17156701965623    1.27036812260606   -9.18014837861107
C         0.93487405346483    1.90943286603554   -9.22620212189115
H         0.33170735716327    1.93727711011903   -8.32985907500141
C         0.49443408844287    2.48829473551104  -10.40224539476220
H        -0.46597199263105    2.98161815672502  -10.42761007311122
C         1.27427869105047    2.43081353175285  -11.54474803989044
H         0.93022882613921    2.88586402343679  -12.46101244693566
C         2.50013571700755    1.78401688541578  -11.50726220523043
H         3.11106496965381    1.73567437771172  -12.39660053670744
C         2.95097957006014    1.20492311375230  -10.33666304308026
H         3.91379122663352    0.71476220956238  -10.30799687237575
C         2.82276697561490    1.30102983342502   -3.94167965950610
H         1.85198567742514    1.58665536570305   -3.55289946927296
C         3.13054125900434    0.06552719869466   -4.54390470978623
H         2.42938845250468   -0.74369572736372   -4.70613191893956
C         4.51584422909180    0.03050857127993   -4.79072166124714
H         5.08128090209110   -0.82724005280742   -5.13679817072742
C         5.07451124362562    1.24027602286746   -4.30856422690743
H         6.13289977207996    1.45755407322685   -4.22804432469680
C         4.02885214145325    2.01239866478923   -3.76991342544745
H         4.14706031283302    2.92428888974725   -3.19764620101413
C         2.30423477762483    3.97926790376705   -6.86855203149717
H         1.24276995501958    3.97062940533306   -7.08096192889837
C         2.88504249516185    4.20662605773138   -5.60457037375467
H         2.33920194392668    4.41813037342809   -4.69131457190737
C         4.28340285624821    4.30572438135807   -5.77965895687734
H         5.00277903794252    4.60315003234319   -5.02593026112917
C         4.56384778262792    4.12664242868736   -7.14712722132242
H         5.52768208571388    4.26814692085749   -7.61905938524352
C         3.34015418977645    3.91902971511583   -7.82244789131127
H         3.21495474479034    3.86467318645951   -8.89707024959618

