31
CSD_code = REDTOM | q = 0 | S = 0 | Stoichiometry = C10H16ClN3Pd | MND = 4
Pd        1.18955274047206   12.48322664944116    7.01470081229355
Cl        2.12967922516808   12.76039369802011    9.02791691720632
N         2.55670343989050   13.60394675519777    6.14169562797742
N         0.51985811136274   12.31363885429356    5.07824140691732
N        -0.35793143187450   11.27135218274111    7.83925417010545
C         3.62647288057469   14.32899324444888    6.44966142020477
H         3.97769654210457   14.43049259979560    7.46213665119507
C         4.17126121968585   14.89347605557788    5.28888910859493
H         5.03741008199609   15.52520501609830    5.24709006303813
C         3.38535329957868   14.48194397916426    4.22823648104370
H         3.50640498173879   14.72266798165282    3.18942193031783
C         2.37517301273670   13.67390517457144    4.77771064565541
C         1.28920721295622   12.95741655309724    4.25255393395849
H         1.10125178273441   12.93736854395995    3.17851211925070
C        -0.58739766559409   11.53646470803743    4.59254671017872
H        -0.37617931144346   11.15634392277314    3.58239247374703
H        -1.48494201099258   12.17013687544757    4.53029420639344
C        -0.86403041138432   10.36158228259216    5.53393735557494
H         0.05807340693082    9.78662288234832    5.65526472458123
H        -1.60968009425018    9.71201684112093    5.07175603999069
C        -1.39445995391253   10.82336821498316    6.89442183071731
H        -2.08642508501815   11.65511654045326    6.72559090273194
H        -1.96239763843361   10.00235724877274    7.35934205866082
C         0.30573207656856   10.10870314219761    8.44249945301030
H        -0.42686354901134    9.45716756781880    8.93773930412641
H         1.03374444916522   10.45520884049722    9.17856898440292
H         0.83400823846258    9.53260541154781    7.67894747143220
C        -1.00696693665627   12.05099585451523    8.90183200983130
H        -1.42959768224927   12.96834828109151    8.48131027518286
H        -0.26472124239684   12.32364030211379    9.65360789823709
H        -1.80738968890945   11.46919379562913    9.37752701344169

