51
CSD_code = REDWIG | q = 1 | S = 0 | Stoichiometry = C19H29BrMoN(1+) | MND = 11
Mo       -0.18105498648603    1.76198196844515    3.51976170236279
Br       -1.94228516646062    2.80442982852171    1.89118436360890
N        -0.64611953629407    3.52103970293309    4.41400520901499
C        -1.99789674427770    0.57076960715303    4.33570517586420
C        -1.23719670708896   -0.26696255134718    3.47793589759629
C         0.02503067101184   -0.46794083813813    4.09077365375146
C         0.04441377551738    0.25244066094692    5.31261855457844
C        -1.20581901538453    0.88397916863425    5.46253852440110
C        -1.14684501357712    4.46816315686158    4.83762738136210
C        -1.77233802150970    5.64381809706028    5.32958410009729
C         1.86960641015488    2.47889434024630    4.14162310739938
C         1.58512046577836    3.23062392451031    2.94883320703781
C         1.31445444955414    2.45120062289862    1.78915645466172
C         1.00550951351663    1.10899913118317    2.05683116627708
C         2.19062997181911    3.13593137436421    5.46396877181668
C         3.65692714778995    3.56569624134531    5.55705958832535
C         1.62421896665592    4.74155836791974    2.89711904738590
C         2.91178628344709    5.26915331330867    2.24961663087734
C         1.21791310998074    3.01659203819624    0.39448649506154
C         2.53404262315092    2.83376734276104   -0.37008099959546
C         1.32388596009086   -0.03853371721637    1.18460182080421
C         2.78243010561085   -0.47673212804291    1.39101998729170
H        -3.05490039956784    0.78805647251143    4.22498677856425
H        -1.63381508181666   -0.80764359055587    2.62990542935975
H         0.76195145768168   -1.20282579265652    3.80028654769895
H         0.81270269045096    0.18439894471033    6.06815702529357
H        -1.54665949384715    1.40585870554294    6.34791315380843
H        -2.48255468934612    6.01148025408925    4.58579789514048
H        -1.02411844904935    6.41397274523610    5.52209964135591
H        -2.30471819834227    5.42670545563917    6.25637950556187
H         2.54315884635131    1.63362898585247    3.98757057146574
H         1.54769769790170    3.99613660820693    5.65771488156902
H         2.00572165895874    2.40934806874774    6.25927307103388
H         3.87209728394444    3.93672492790663    6.55532046251607
H         3.87925235517067    4.35390113380638    4.84513648833951
H         4.31438974684023    2.72343483918149    5.35761439430439
H         0.75856028638738    5.12460796803600    2.34393480113079
H         1.57149163996774    5.13759109371386    3.91185503261784
H         3.02731716389005    6.32500113091051    2.47895464935493
H         2.88836054697948    5.16298303939989    1.17083661342311
H         3.78046216177954    4.73792028961471    2.62968788219181
H         0.41624113831247    2.50818489491454   -0.14676486945535
H         0.96085592353413    4.07555203049365    0.43473223665223
H         2.48994862540704    3.39662105521954   -1.29850719875967
H         2.70607423997096    1.79088701117977   -0.61979944382413
H         3.38039524312802    3.18949534820784    0.21173427254056
H         0.66353759449318   -0.88681809148982    1.37367453232128
H         1.19268821953252    0.25869392066360    0.13936557026370
H         3.02696644946244   -1.27814480976830    0.69987861403869
H         2.93571908029331   -0.84123606863819    2.40491974279600
H         3.46286199853768    0.35351377678319    1.21737187870992

