48
CSD_code = REDXED | q = 0 | S = 0 | Stoichiometry = C16H26ClMoO3P | MND = 11
Mo        3.33031834981777    1.41657877012629    2.85807144010408
P         1.29439755303067    0.19373074898335    2.87669243749274
Cl        2.84015727087707    0.75648219998056    0.48366928818097
O         0.91972342901864   -1.22845029881974    2.23961392781538
O         0.19373886633592    1.22137172816374    2.28140006383189
O         0.65276982415441   -0.27875399930812    4.27831841933267
C         3.86856270936744    3.26848595785810    4.18391544906111
C         2.47998252258342    3.21383618477253    3.90298257596519
C         2.32448511524188    3.35081657416212    2.48613093607223
C         3.62700970075786    3.48609023922894    1.92826146841733
C         4.56351207558447    3.44494788293010    2.97498616459426
C         5.43155745888340    0.73003628123809    2.45061594945676
C         4.72585819672345   -0.51145105002313    2.56462686892644
C         3.98157336605689   -0.69216065012586    3.73782028307874
C         3.94019360759518    0.43350226744076    4.61921430434930
C         4.24081765331661    0.50340367200105    5.90439310187969
C         6.15716011489343    1.02488901735977    1.16521176210605
C         4.82472709687792   -1.56956965036745    1.50297313000643
C         3.36033138648955   -2.00263011230524    4.14031192029038
C         0.90382846887360   -1.54515345184051    0.85793068024991
C        -1.18538072721452    0.86934071588837    2.26477882113626
C         0.68435313843055    0.56909204125992    5.40618096196264
H         4.31102164456020    3.31791877967003    5.16716306516926
H         1.69046090187598    3.31955571503778    4.63387724845798
H         1.39951646589960    3.58633462691370    1.97372047631640
H         3.84492235141958    3.71491593424231    0.89464248359007
H         5.62425966576834    3.62701649436011    2.88433031768774
H         6.02781721036272    0.98304179271722    3.33118617895399
H         4.09089053144669    1.39689851797309    6.48929538430300
H         4.68591561405931   -0.32741628567562    6.43611534464152
H         5.46856051253746    0.99920411726689    0.32356055914154
H         6.94741356810035    0.29313255658481    0.98573230830980
H         6.61790072850228    2.00978148578609    1.20447014451926
H         4.58903299197619   -1.15377824598852    0.52465883008004
H         4.15522543454820   -2.40356603413214    1.70043073837497
H         5.85009708065170   -1.94295646448664    1.47234360555597
H         2.78742816709430   -1.87314615441978    5.05572293739898
H         4.16054643520443   -2.72136807457902    4.32976100390044
H         2.69931512102430   -2.41412076185762    3.38013362396263
H         0.23472394604048   -2.40097581388654    0.75107456971142
H         1.90335332824981   -1.81049431056879    0.51021377859637
H         0.53720600863199   -0.71175259507798    0.25825350482588
H        -1.74354535974273    1.63972056970675    2.80023061845973
H        -1.34938753801588   -0.09865907979713    2.74373646049810
H        -1.52975351341865    0.82890165382907    1.22986179184763
H         0.36058935648476   -0.03233875662365    6.25572061305067
H         0.00061262848010    1.41210428356484    5.27918079343148
H         1.69579954056825    0.94031098083588    5.58118366491163

