72
CSD_code = REDYUU | q = 0 | S = 0 | Stoichiometry = C32H32Cl2NOP3Pt | MND = 4
Pt       -0.17935157291605    2.82007453934647    0.31616237150783
Cl       -0.48286062064503    1.33846889387325   -1.43188378044647
Cl        1.79063837627946    3.57931198743708   -0.62709994324614
P         2.88254876916133    4.69948242594501    3.38282708535173
P         0.20900266424434    4.19848402765675    2.08448127958017
P        -2.20873455274077    1.94460008809445    0.91033270448122
O         2.46029149954711    5.34853522381057    4.62579015972130
N         1.74976396008371    4.87308501438481    2.12383842981545
C         3.20970949869983    2.91895070122497    3.56709141128089
C         3.22628540339699    2.04299297853831    2.48977385783416
C         3.48877000320309    0.70238526479581    2.70583959527197
C         3.73728628322866    0.23781088526171    3.98782067131077
C         3.72288052747735    1.11371699311050    5.06084122494573
C         3.46289010084953    2.45557918113035    4.84949024600065
C         4.36604899382337    5.42036671726320    2.62613189132621
C         4.83151170041771    5.05897433402484    1.36748913995562
C         5.98936024629308    5.63671676104628    0.87911815271192
C         6.68510358707182    6.56286169833773    1.64070258541399
C         6.22391202277697    6.91759900264466    2.89768941804916
C         5.06594896039364    6.34333960046145    3.39029976757865
C        -0.84050435867060    5.66148416776634    2.33357639312652
C        -0.40448638693610    6.71484510693093    3.13131061112286
C        -1.21700387279958    7.81958595123468    3.31035381648780
C        -2.45436433713829    7.88441523780402    2.68837969464622
C        -2.87996983295034    6.84660460366027    1.87479854655688
C        -2.07288844921084    5.73795497469112    1.69549513191749
C         0.09799207691828    3.24976093334442    3.63299628090706
C        -0.11568956604946    3.81858246231429    4.88032288965551
C        -0.10494435368561    3.01496928039698    6.00775089489399
C         0.10602412015965    1.65102901295314    5.89525626572612
C         0.29074546082304    1.07589823225948    4.64748092106914
C         0.28237951142788    1.87413259214730    3.52046353838688
C        -3.44724402340284    2.53387563185135   -0.28207299488361
C        -4.74960520250155    2.04793925001059   -0.30335201723719
C        -5.65458563798631    2.53410609746092   -1.22925939559793
C        -5.26930048111394    3.50919624751219   -2.13513750418895
C        -3.97407531922203    3.99983640457467   -2.11655438522570
C        -3.06716196823021    3.51326095356961   -1.19364195148966
C        -2.99168527097273    2.32473250503607    2.53337164672380
C        -2.37329594949919    0.12492696299602    0.91039839765197
H         2.15871700940975    4.76559634289670    1.18547384582428
H         3.01021113442750    2.39564109887987    1.49071869868304
H         3.49537909616061    0.01749736713324    1.87076228497632
H         3.94079438134564   -0.81078230119995    4.15052660463972
H         3.91386869097049    0.75048313819675    6.06013062531064
H         3.43593087567715    3.15815245591864    5.66957913900269
H         4.29579899965643    4.34025066201901    0.76555836948136
H         6.35089531879588    5.36314669104692   -0.10101167893564
H         7.58903403784443    7.00869119390888    1.25211415658398
H         6.76604499979022    7.63930523495242    3.49101132592705
H         4.68077187439227    6.60301258147289    4.36580780414756
H         0.57155842167270    6.66474252368794    3.59308005215029
H        -0.88254568817359    8.63650421768996    3.93259982187350
H        -3.08322445618899    8.75134649824274    2.82789994375118
H        -3.83570077096109    6.90435382031821    1.37461763056720
H        -2.38496653939524    4.92903233506604    1.04513243098035
H        -0.28107779039034    4.88052111649614    4.97194739225236
H        -0.25696805392002    3.45860573007193    6.98029789469232
H         0.12149573288007    1.03233257355751    6.78032930896273
H         0.44718869942314    0.01101416776356    4.55711758098095
H         0.42867044985269    1.44143138405134    2.53201065200862
H        -5.05940863280453    1.28453298062340    0.39662268433548
H        -6.66346762698844    2.14829595874420   -1.24749201014192
H        -5.97862192336221    3.88216273500859   -2.85891142788322
H        -3.66973878613816    4.75575293690340   -2.82476180385256
H        -2.04096688918341    3.87696637174207   -1.18702377328431
H        -2.93685959936456    3.38918700836940    2.74948836555976
H        -4.03532974961291    2.01398671319745    2.51887862464656
H        -2.46392862417143    1.78389645416928    3.31692753594941
H        -2.12714625113731   -0.25604199463843   -0.07816997350217
H        -1.67169158296159   -0.28485560379501    1.63682030255095
H        -3.38705876710738   -0.16273531928940    1.18614454300288

