73
CSD_code = REDYOP | q = 1 | S = 0 | Stoichiometry = C35H34NP2Ru(1+) | MND = 8
Ru        9.37205966961738   12.23254552209187   22.31287114180603
P         7.22985410794465   11.58113541217473   21.92929488259659
P         9.82641342686428   11.10374622749015   20.38860352909981
N         9.06140471760869   14.19939523685212   21.21386769790078
H         9.78226539158210   14.84312380215013   21.54195843393397
H         9.14521924535787   14.13896453523423   20.19958787568442
H         8.15227262491600   14.61419549334689   21.42489705234885
C         7.16266575525485   10.31010279942347   20.58106514784733
H         7.32336443461528    9.34424315642632   21.06904377013096
H         6.16352795489560   10.28779964305641   20.13586622036546
C         8.25108316470716   10.57252502020564   19.54722750489010
H         7.96346465432192   11.40819894312970   18.89817386773218
H         8.42811399740939    9.68663640504702   18.93085519249451
C        10.28610678178317   11.01384410903440   23.90158016771063
H        10.32573874336454    9.95047303582148   24.10132599178512
C         9.38761924141381   11.93650382425541   24.51930513999237
H         8.54606547109042   11.66555327741069   25.14452955984752
C         9.80239801933996   13.25037169255955   24.23290983926208
H         9.38718992441588   14.15022473023350   24.66955322502145
C        11.09112882127335   13.17035448214604   23.57625291109963
C        12.02722634038288   14.14875471154203   23.20298992759809
H        11.82093689235049   15.19759080316602   23.37341257808989
C        13.22750757484107   13.74384942358462   22.66493435598532
H        13.96380086573164   14.48318367383014   22.38835481995755
C        13.52942191249479   12.38486994351371   22.48917585200259
H        14.49070871554511   12.11341374013629   22.08127519096372
C        12.63822064363071   11.40043839189929   22.84513330633769
H        12.88774257790819   10.35457486924423   22.73883513495623
C        11.40199164267237   11.77840257025506   23.39327825835521
C         6.23634275838115   10.75737463613286   23.20840692197327
C         6.84929671762900    9.71918593391737   23.90709030607389
H         7.88127753432969    9.47592373423247   23.68674953225108
C         6.15185706044406    9.01995307602267   24.87260509252539
H         6.63085305778139    8.21644591735736   25.41164539790732
C         4.83530968857430    9.35570933858766   25.15006043411016
H         4.28915353994656    8.81427285163624   25.90693553726071
C         4.22146364931012   10.38556273550646   24.45689042137411
H         3.19563914490694   10.64418818112914   24.67097033812785
C         4.91488140724903   11.08835791536785   23.48623228666250
H         4.42806610656184   11.88768188361854   22.94725857498210
C         6.15654744037515   12.94606350378494   21.38155674913781
C         5.99160465385872   13.97090608231468   22.31777685690759
H         6.45721518437672   13.86352275222796   23.29179064643860
C         5.22922016361717   15.08288529058231   22.01610936217551
H         5.09150294326124   15.86236060287003   22.75027999378642
C         4.63709310361538   15.19149251392194   20.76575276142103
H         4.03802225449192   16.05620455742724   20.52642374014759
C         4.81334546177122   14.18939008409204   19.82656182350854
H         4.35245246018210   14.27608824053823   18.85434296001226
C         5.57293406427944   13.06952712060772   20.12666369311688
H         5.69383172528094   12.29693038978503   19.38253480476822
C        10.77547620031664    9.56337219685778   20.55900550652404
C        12.01740774984255    9.38247312422564   19.95981096675660
H        12.43785552259370   10.15828098023329   19.33664618317299
C        12.71560121615893    8.20473836726210   20.16512552682671
H        13.67843261887770    8.06682562062696   19.69695791958844
C        12.18614038094680    7.20785454723773   20.96742718423770
H        12.73506748700249    6.29204598220473   21.12386829981766
C        10.95357820020343    7.38947505232898   21.57643933674993
H        10.54255061932639    6.61509009421093   22.20692088114920
C        10.25559028648375    8.56508552963034   21.38023725242263
H         9.30292496733913    8.72529852604368   21.86784452335608
C        10.71466744316009   11.97530783720623   19.06366005044847
C        11.57743289601221   12.99919591766130   19.44650086393005
H        11.67775953356069   13.23768538688357   20.49948055793648
C        12.31536144666640   13.68450137818378   18.49870246060062
H        12.98802062439078   14.47238415942259   18.80275842046029
C        12.19138203360239   13.35281175111993   17.15908701460734
H        12.76463691264096   13.88538089338795   16.41619958260308
C        11.33720127504383   12.33150917982385   16.77239477458637
H        11.24951462579073   12.06913980822126   15.72907055938315
C        10.60153622405300   11.63884108341259   17.71744635755726
H         9.95243830243407   10.83235976688222   17.41051896682382

