84
CSD_code = REFBUA | q = 0 | S = 0 | Stoichiometry = C40H39ClP2PtSe | MND = 4
Pt        5.79496112425837    4.13679025414508    4.22016643755442
Se        6.26167480144822    6.14242792427193    5.50984386862167
Cl        7.77208493806044    4.29403731666757    3.03022008506966
P         5.62999430480098    2.32638204086197    2.75167136029182
P         3.87952844097810    3.80935041511440    5.39621071115640
C         8.02560043364077    6.82921358046633    4.94040730651120
H         8.74006381278256    6.01594278466837    5.05887456819539
H         7.95486104436319    7.09330332930488    3.88407538823197
C         8.40066422160024    8.03533748301533    5.78424617294493
H         8.49471515964047    7.72881312737560    6.82977915732517
H         7.58960913748155    8.76828488564912    5.73018945271659
C         9.70074846574724    8.69206416398499    5.31969536190288
H         9.61076107073464    8.95882721395632    4.26384694375808
H         9.84296773800810    9.61725504525599    5.88453310843472
C        10.92166468186049    7.79998115643345    5.51268290236392
H        11.00343922410300    7.48785472977824    6.55184112880195
H        11.82922874014400    8.33596976903125    5.24232456011168
H        10.85500071588405    6.91178715668303    4.89012616333439
C         7.18082608004243    1.39010791696042    2.58057017890175
C         7.75595336774553    1.06687462985157    1.35964326153614
H         7.28858139397545    1.37794018984182    0.43661596414047
C         8.94989006269526    0.36627280838395    1.32648075201837
H         9.39937886743300    0.12395922889322    0.37433592728344
C         9.57320508768454   -0.01318031111270    2.50248939555534
H        10.50757141467798   -0.55395145570948    2.46910481089189
C         9.00694731247066    0.31779406332570    3.72375746791563
H         9.50013922322980    0.03836541027993    4.64355039936645
C         7.81839103026520    1.01949663183490    3.76258944573406
H         7.38064203915187    1.31042839664366    4.71010400413881
C         5.22582338280071    2.91098084858641    1.07844909129687
C         5.25273989861900    4.27596808743004    0.81499364549898
H         5.53722629593606    4.96572675958985    1.60472680504123
C         4.93535499227800    4.74922660672885   -0.44552082848717
H         4.96007959375966    5.81048081198933   -0.64423592383304
C         4.58767356071243    3.86142882682209   -1.44983712850699
H         4.34177312397646    4.22850658909644   -2.43549816463299
C         4.55198658761079    2.49983737884842   -1.19108292481018
H         4.27802382344918    1.80771533051185   -1.97428212730821
C         4.86525084903423    2.02228456591480    0.06789944705116
H         4.82333617838033    0.96082926416940    0.27362166457154
C         4.41154288605342    0.97240537910924    2.93326304718154
C         4.76033702852149   -0.27563733277853    3.43689731830105
H         5.78763009081985   -0.48510822436940    3.69821581185843
C         3.79919114204302   -1.25828578602904    3.59157650791394
H         4.08398570749234   -2.22801088383221    3.97297715003556
C         2.48011061354376   -1.00507823106335    3.25685837668678
H         1.73289083216054   -1.77569305315511    3.37591420356543
C         2.12258362119245    0.24075511035447    2.76706359050073
H         1.09486819574060    0.44791671083718    2.50537865984333
C         3.08045793496277    1.22260139993135    2.60776113592872
H         2.80048693604918    2.18966304556079    2.21460140525560
C         2.31985644261744    4.07419696887413    4.50515520913354
C         1.08318358390431    3.94439650361030    5.12993073446007
H         1.03553123439477    3.68485413059241    6.17882850907728
C        -0.07549284104405    4.16984770221652    4.40965012157287
H        -1.03681383207877    4.06314746669724    4.89082601929993
C        -0.00771134084844    4.54172459641786    3.07543153326042
H        -0.91692332354155    4.71797015987137    2.51977614616509
C         1.22246830742856    4.70548818123214    2.46008383381079
H         1.27713208423900    5.01472275375522    1.42642205632016
C         2.38314385986601    4.47446347436707    3.17623278096104
H         3.35833950758965    4.61315471129266    2.72060696640871
C         3.55490591575695    4.74796807407531    6.91919128232364
C         3.71359101222402    4.21439557310701    8.19212756407471
H         4.01574551979782    3.18408315724148    8.31670951202743
C         3.48214692299482    5.00690160966937    9.30274919247805
H         3.60497502286595    4.58956884136046   10.29167890975725
C         3.10200195761727    6.32945266904987    9.15062992468514
H         2.92917148252399    6.94417399818029   10.02163408428521
C         2.95108645915837    6.86649885517068    7.88203145872486
H         2.66396506516664    7.90033966535290    7.76198143865329
C         3.17746318299497    6.08129630627181    6.76865451705757
H         3.07187402381787    6.49198007326726    5.77323098172056
C         3.88966197894635    2.08725363280363    5.97563341250310
C         5.12696741528681    1.65999997452279    6.45589596739909
H         5.95442940644925    2.36684202117078    6.45176821298691
C         5.28601773876711    0.37475024535605    6.93467065422697
H         6.24499176806449    0.04765739224919    7.30956331299620
C         4.20624170644153   -0.49510042972186    6.93247629848428
H         4.32455872953151   -1.50179064695838    7.30513147632241
C         2.97863187905324   -0.07710256034489    6.44834631064690
H         2.14116741795343   -0.75910116754653    6.44225914275225
C         2.81432948868295    1.21157776921891    5.96839568793354
H         1.85781501335267    1.52554520750218    5.57797969972661

