72
CSD_code = REFCIQ | q = 0 | S = 0 | Stoichiometry = C27H30Br3N4O5ReS2 | MND = 6
Re        0.66368972905450    3.10293520232824    9.23208426431368
Br        0.03356977978618    1.64755930127517   11.25808175737463
Br       -4.87515107887187   -1.80442360471091   12.29271680770528
Br       -3.98607601461322    3.63676404553095   15.78969065277929
S         2.59436989098242    1.43879593636805    8.50635938290810
S        -0.77770219894393    1.64372443865318    7.59345551893120
O        -0.06038070963256   -1.74048308852399    7.38614161278020
O        -4.45670096305860    3.31827967330436    8.95620439151358
O        -1.69808402574310    4.98201022405126    9.89101279640699
O         1.46025745761253    4.61501638691856    6.67007336861844
O         2.68214197190257    4.57075345595664   11.05459606987394
N         1.01864123260249   -0.61403563522716    9.05529514100050
N         2.76089069854332   -1.00155652005143    7.54238904363188
N        -2.77193081783778    1.81580647854703    9.30648059582265
N        -3.30716722744286    1.23976303483418    7.08234840120598
C         2.09220876133175   -0.15554121027764    8.32223285428245
C        -0.03714380780119   -1.33252685060115    8.52734329211868
C        -1.16353266824057   -1.51114264489788    9.47994341546630
C        -2.44336969189597   -1.64235924389458    8.94525346914449
H        -2.55621462984634   -1.65818142182131    7.87264022995225
C        -3.54473584402786   -1.74326596190453    9.77082111809908
H        -4.53852552098302   -1.83474299484908    9.36058386408038
C        -3.35695963801264   -1.72868327911191   11.14464036653760
C        -2.08725712105693   -1.65417553609462   11.69518221656928
H        -1.95448761042269   -1.66610984297606   12.76502400781415
C        -0.98998723755042   -1.54544091459789   10.86168930592521
H        -0.00770388880837   -1.49870515023253   11.30295091358279
C         2.64066813127973   -2.44180709746552    7.69653254120001
H         2.02039494018767   -2.85045663038519    6.89306350271013
H         2.13043420169924   -2.63706579236177    8.64166086686694
C         3.99894773345611   -3.13460722069226    7.73453594595977
H         4.64739763569978   -2.66330811943565    8.46968213968222
H         4.49203137110308   -3.12268143964918    6.76718761819411
H         3.85081711335317   -4.17164099103265    8.02397577145569
C         3.61466160894263   -0.51336324361618    6.47473116534674
H         4.64286086462858   -0.83983673414926    6.64578961193462
H         3.60064577707126    0.57690292758264    6.50784951495499
C         3.11477749055000   -0.98139981008794    5.11121483863331
H         2.05884073607542   -0.74527085672651    5.00198409028367
H         3.24762317212886   -2.05131168114862    4.97664964969524
H         3.66902297631021   -0.46579021858114    4.33186420471251
C        -2.40971820117489    1.57952792842988    7.99961830253360
C        -3.74579451332156    2.72226621259326    9.72782767505564
C        -3.78889808532797    2.89185244396677   11.19668838989522
C        -4.26171247196819    4.10705682287288   11.68956425383303
H        -4.56708207054791    4.86864484585238   10.98890458210316
C        -4.31616490948430    4.33644500960517   13.04925318148002
H        -4.66779559348079    5.28090674848412   13.43444970676569
C        -3.90923911383680    3.33441305563850   13.91671106071815
C        -3.45512144811315    2.11248007261009   13.44653514316119
H        -3.14736646724319    1.34306045369904   14.13664331282619
C        -3.39153251631526    1.89420865776497   12.08450916235659
H        -3.04167032470075    0.93875373979542   11.72619223341867
C        -4.65101338468918    0.78426907893855    7.39958691807344
H        -4.74617901697289    0.71343161561802    8.48331333962008
H        -4.75752842373456   -0.22216867249070    6.97865383393011
C        -5.75320364020726    1.68342390615880    6.84922751365085
H        -5.76217959246691    1.69022409177599    5.76266548372285
H        -5.62326941490946    2.69754649022919    7.21317589740646
H        -6.71335560780887    1.31069623333859    7.19498725689481
C        -2.91015643316967    1.13041836065592    5.68919177087374
H        -2.12633761730072    1.86732248599634    5.49816742580870
H        -3.77702188844008    1.38548616511165    5.07845829248233
C        -2.40367746218868   -0.25946007245832    5.31338574041303
H        -3.18059576451587   -1.00914082381998    5.44750284554389
H        -1.53733606623031   -0.53779928178192    5.90869255937518
H        -2.11117383108935   -0.25915820060212    4.26714036404617
C        -0.80336044196987    4.30397312731833    9.63548387091112
C         1.16788887315358    4.07715458817208    7.63351340849225
C         1.91838497706081    4.05916802680382   10.37389386558672
H         0.79423037717572   -0.04552570339849    9.88293098194460
H        -2.01230250570053    1.67432522288612    9.97907530699949

