55
CSD_code = REFPIC | q = 0 | S = 0 | Stoichiometry = C18H30Cl2O2P2Pt | MND = 4
Pt       13.50524893960989    1.41836920126422    3.53195882820165
Cl       15.04316956624443    1.07340434572432    5.25321870268146
Cl        8.56943946771058    0.38316645620021    1.03062485261744
P        11.85073105113665    0.04583339670219    4.25634754685727
P        14.69766581611454    2.88996939954337    2.28484493783116
O        10.70592398719609    0.16553645359221    3.09277476707318
O        13.71758043021972    3.22304163108353    1.01692010557734
C        12.20048605752175    1.70340643422581    2.05005676750248
C        10.98676623970801    1.02650237861725    2.05462742300823
C        10.08138725773198    1.22283602145403    1.01930616561761
C        10.39241343131623    2.08963197585943   -0.01837343342724
H         9.68140902925819    2.23182047558966   -0.81563989868429
C        11.60196309043773    2.76607919762428   -0.03533601007851
H        11.84518639688784    3.43740996506623   -0.84307482514807
C        12.49946454212868    2.56737801462966    1.00200059870151
C        10.68906423287161    2.01990166313082    5.67845818716420
H        10.04996586941692    2.27225871507696    4.83269245037623
H        11.65727775222202    2.51063231324089    5.54047263629297
H        10.23060473003318    2.40729706555992    6.58627272908848
C        10.88588254729840    0.50749782906526    5.76303132179435
H        11.52119618225456    0.27911095391151    6.62463546891072
C         9.56607911194825   -0.24592992087240    5.85810730909519
H         8.98284739775489    0.12742923282542    6.69830121098221
H         9.73054746861922   -1.31141133691764    6.00374874434908
H         8.98687641580429   -0.10587843119368    4.94769373382685
C        12.88544746625836   -2.15843423853425    5.54817998194447
H        13.22451885411159   -3.19131659311044    5.49195306352653
H        12.25166088993758   -2.05478868313214    6.42649813199873
H        13.75741269268534   -1.51689741852464    5.67315506645814
C        12.13972952675165   -1.77466028372053    4.27672942266920
H        11.17520407007210   -2.29078289613631    4.20832846791093
C        12.97707985918138   -2.06466911258544    3.03272190511686
H        13.90294811816732   -1.48435185121057    3.07702430972765
H        12.43487917439824   -1.78606305556623    2.12922980116021
H        13.23385246012067   -3.12054836649583    2.97056779133395
C        15.45562455561965    5.55580582840152    1.83699740344310
H        14.69339506470395    5.58653151918508    1.06127029378971
H        16.40034797006500    5.26360618530115    1.38363770861675
H        15.56952150577990    6.55721834614001    2.24882957276898
C        15.04813491298383    4.58319230865464    2.93514669965234
H        15.85415488957135    4.47365047091680    3.66754814996972
C        13.77660305109715    5.01935840243843    3.65993896659840
H        13.92347880449410    5.96727791902162    4.17392613815510
H        13.49708002456015    4.26270271271112    4.39848240761682
H        12.95586014992700    5.13155061262420    2.95194620413214
C        17.38506616506626    2.27176592428300    2.38230185643604
H        17.10413626055081    1.77909530715958    3.31276394365854
H        17.70846520353991    3.28498234431233    2.61141836800165
H        18.22726745414174    1.73437835239822    1.95000148460291
C        16.20447415703209    2.26958880181048    1.42010290747372
H        16.40213868937967    2.89959301636913    0.54512886820434
C        15.85517362594858    0.85083444027468    0.97485147756732
H        16.70020717749801    0.37546173512636    0.48029117264275
H        15.00985543182034    0.85886029885311    0.28672019239622
H        15.58530478265118    0.25436454230938    1.85123792226044

