55
CSD_code = REFPOI | q = 0 | S = 0 | Stoichiometry = C18H31ClO2P2Pt | MND = 4
Pt        7.42287146098011    4.01119311697238    3.01986036631627
Cl        6.39611890888657    6.11481544241073    2.93746388882796
P         6.72902026524210    3.19327061529818    1.02327591883300
P         8.43160661469410    4.18527400875654    5.04164001202305
O         7.38268768024807    1.69680716078260    0.95238508835615
O         9.20433886722757    2.75744110621744    5.23095001927605
C         8.14977503543421    1.31868284576924    2.04349813585124
C         8.29778110206039    2.21911390363003    3.09175260668387
C         9.06527736863919    1.85155507528091    4.19059114615490
C         9.67895108572969    0.61035952337569    4.25015136532979
H        10.27187915153592    0.34179114301040    5.11012837049588
C         9.51405810999536   -0.26864229016829    3.19060729520862
H         9.98783691364338   -1.23720179507705    3.22877667584339
C         8.75281620346037    0.07143820533964    2.08280572166419
H         8.62715447948123   -0.61564127625051    1.26098627983542
C         4.94547926057609    2.82693994220752    0.70592814040903
H         4.45331878319472    3.79042300987720    0.54029490276334
C         4.41173793112050    2.21325999123293    1.99837193607852
H         3.33601202661800    2.05719848586103    1.94379079035327
H         4.62503332277516    2.88037560526347    2.83766501979705
H         4.89269329994723    1.25414304923592    2.18890051837185
C         4.74624727724461    1.91330545664994   -0.49561873851482
H         5.32323829145017    0.99941146104929   -0.37038364365221
H         5.06179332563828    2.39926795921661   -1.41635614514938
H         3.69488865613419    1.64701177392369   -0.59248041079064
C         7.43933893955302    3.96972996935695   -0.49318124209877
H         7.41197559149620    3.24525442185380   -1.31551241583221
C         8.88762128963228    4.29721301188824   -0.13445381457358
H         9.39356176670259    4.79615095150966   -0.95917374254528
H         9.43887888377450    3.38995066893554    0.11318436829994
H         8.90216850527274    4.96186979820428    0.73481725724468
C         6.65885753473053    5.23058453804298   -0.84035043657295
H         6.56143870229644    5.85984181775244    0.04390048846355
H         5.66221087814113    4.99269051567100   -1.20634189792371
H         7.17862892231217    5.79852742333615   -1.61015071177134
C         7.33398606611806    4.20278697597734    6.52552869359998
H         7.89228087542957    3.82889442668059    7.39179024615108
C         6.19164372044711    3.24633859927895    6.18809946973768
H         5.46158583571235    3.20553081344644    6.99458237257645
H         6.57032442035366    2.23950536523525    6.01112739604373
H         5.68753334937036    3.59348704044071    5.28090863325366
C         6.81690596389376    5.61468488677601    6.76756243204408
H         6.40919838304285    6.02197568496704    5.84275195079020
H         7.60950553927380    6.27396548591875    7.11540082582212
H         6.02679574584382    5.60612811346784    7.51656729287110
C         9.80794659197358    5.38634994175611    5.32227139162497
H         9.34594217100506    6.37471148281619    5.40982960531595
C        10.61508494577811    5.06299692307147    6.57203551548076
H        10.99178180274503    4.04356191958052    6.52092891650657
H        10.00841895034272    5.16377534222140    7.46941376992131
H        11.46335954932908    5.74064817596335    6.65479417965182
C        10.65772788115940    5.34738639563899    4.05410115641997
H        11.43921513058331    6.10436749096076    4.08195139142447
H        10.02487131923088    5.53164665987353    3.18196253799173
H        11.12509532250733    4.36945163951846    3.94106910971173

