45
CSD_code = REFROK | q = 0 | S = 0 | Stoichiometry = C13H26Cl2NOPPd | MND = 4
Pd        7.99214412747127    2.96502194358221   -1.50638903679401
Cl       10.13158688977356    3.04141653891159   -0.62615880917803
Cl        3.63636378686338    1.79378899817819   -1.63447145271112
P         8.62656250271859    4.35678109711992   -3.08847358129174
C         6.10272158586539    2.83581530832815   -2.20068470624844
C         5.35924820131402    2.12874989899304   -1.36834380878320
C         5.85186172260798    1.57392763725094   -0.06032296732277
H         5.48860448096692    2.21392700134530    0.75339940624762
H         5.45371561140288    0.56227791151349    0.11219858911839
N         7.32142768107553    1.57105937548806   -0.05206051537822
C         7.83722713392773    1.71466699415637    1.30589216778883
H         7.49799412724639    2.66227848811812    1.72915276937003
H         8.92793836024210    1.72349604309253    1.28047040131971
H         7.49868482709499    0.89010795957500    1.94747151873987
C         7.83267184218996    0.33384223273767   -0.64958230030301
H         7.55991219949659   -0.53876840117702   -0.03823673080010
H         8.92507189217876    0.38690304781403   -0.71673108648850
H         7.41100545660105    0.20745302152954   -1.65415455302476
C         5.55099964598968    3.42130355627633   -3.46843582310454
H         4.74119306613912    2.79378561573172   -3.85340333555490
H         5.13783682934034    4.41339832773492   -3.25771481971296
C         6.60577618999875    3.55920204549815   -4.56546442654755
H         7.10538548964471    2.59462523951112   -4.71074104170452
H         6.13822976945596    3.86568267471577   -5.50574056957479
O         7.56164302433642    4.57900836745555   -4.27582240976519
C         8.76707579349226    6.09561558613301   -2.48120493183129
H         8.56242018697608    6.76871156988880   -3.32201038478031
C         7.66124060494986    6.21487601718048   -1.43031196524675
H         7.83317204802755    5.47076723650573   -0.63371954315494
H         6.68610618183283    6.02319269833029   -1.88093967128766
H         7.64950628470421    7.20705829535717   -0.98271908070754
C        10.13255490964571    6.37837184568587   -1.87055306528430
H        10.12454910742150    7.34349636062869   -1.36649712864556
H        10.91235372519920    6.39661920018795   -2.62847903793858
H        10.37758268270769    5.60949609142923   -1.13865336851123
C        10.19192033588828    3.84635818490522   -3.94604275920892
H        10.99232770164953    3.98914403165990   -3.21431979669732
C        10.06352802274800    2.35100149259402   -4.23880469043816
H         9.37968977871958    2.17774733711008   -5.06986845674224
H         9.68140244806518    1.83034496798905   -3.34630506624702
H        11.02996379728940    1.92237836449482   -4.49705384817508
C        10.45576302454371    4.66754227976423   -5.19927635664876
H        11.36913703711357    4.32882004855117   -5.68565771125898
H        10.56455989662025    5.72252503874375   -4.95742276159852
H         9.63093998846632    4.56308242938386   -5.90181325389649

