74
CSD_code = REFRAV | q = 0 | S = 0 | Stoichiometry = C28H38CrO7 | MND = 6
Cr       -2.98578721254668   -1.60936861333611   -3.84575932671608
C        -3.74887898132060   -0.72323822812578   -5.58243502097121
O        -3.28290262425601    0.30633583278459   -6.27641797441804
C        -5.06156586299400   -1.06041574599551   -6.10902165360862
C        -5.47682146317801   -2.35180437286264   -6.14828993500634
C        -6.65949787737710   -2.76664228436824   -6.83460407995255
C        -7.26472416333875   -1.91885652186637   -7.69019179471689
C        -6.65459643414854   -0.57309864440388   -7.97874708477652
C        -5.93774810674148    0.00484737356445   -6.75173152847869
C        -6.88811928182499    0.67885030892002   -5.71542258925240
C        -6.10501971123139    1.04481551697068   -4.45058383305061
C        -8.04937700125163   -0.22674553776535   -5.30295640349766
C        -7.44674836528361    1.97371960513475   -6.31796922960184
C        -5.67309435516381   -0.73564513887725   -9.14793321185429
O        -8.36716610665671   -2.15806281629357   -8.42704028111873
C        -9.01266031913043   -3.40389702669184   -8.28575609005788
C        -1.95062523169256    0.79005526027163   -6.15157934227557
C        -1.89586880474877    2.21922477796069   -6.71363949407703
C        -0.44770458305164    2.70682474802386   -6.63825578185005
C         0.47946569720768    1.79973392700170   -7.44150257049812
C         0.41999734809571    0.36494097183027   -6.91899427482251
C        -1.02600624539385   -0.12383210969653   -6.96192835267486
C        -2.90710363042911    3.15809843568642   -6.02538743656012
C        -3.14788589848916    4.41378101247232   -6.86301345853190
C        -2.51294829584837    3.55075003764808   -4.60376060318479
C         1.32214313210301   -0.56000876043683   -7.73001136609911
C        -2.59266422182744   -3.20726494307172   -4.73131494359390
O        -2.24518333193395   -4.18905878423215   -5.22006157039007
C        -4.68662934549741   -2.18093735890360   -3.30543206569062
O        -5.61959331916654   -2.60197746146549   -2.78040008946317
C        -3.21695502290760   -0.00288890267544   -2.92891539205314
O        -3.27895321496025    0.95110580069636   -2.28817687157577
C        -1.17054334153096   -1.20950319989454   -3.99397568278716
O        -0.03300191994926   -1.08417319367723   -3.84416824396909
C        -2.44045745215517   -2.35591822848742   -2.23889575112522
O        -2.09568409054296   -2.79885810210627   -1.23248171802230
H        -4.87291314081981   -3.13072357029173   -5.70339304106663
H        -7.00794640507257   -3.77428942058746   -6.67587577429831
H        -7.45232892685658    0.09784789033700   -8.30335139456480
H        -5.27698805305374    0.79788735805432   -7.11385962919076
H        -5.21903133611370    1.62774675091854   -4.68853922791807
H        -5.79523658662972    0.15008085044143   -3.91371669234151
H        -6.72929841473836    1.63871531459038   -3.78635082750458
H        -8.65139624304031    0.27578295070169   -4.54806995735260
H        -8.69363244666114   -0.45838095319125   -6.14667661978949
H        -7.67872743532849   -1.15536236989160   -4.87720664088831
H        -8.04991338448687    1.77929991516522   -7.20096293452876
H        -8.07859319075174    2.47883045847590   -5.59093050724173
H        -6.64019468622059    2.64981243769966   -6.59422172738188
H        -4.84944968777175   -1.38402429862020   -8.85757786489263
H        -5.26983875096241    0.23275057307506   -9.43452947852382
H        -6.17601987604996   -1.17083932639893  -10.00810151587687
H        -8.35730208299554   -4.22533080071922   -8.58935837047125
H        -9.87985743600491   -3.36833738944149   -8.94259983460210
H        -9.33958794559792   -3.56352667578144   -7.25434724260876
H        -1.65278619203504    0.78845307224765   -5.09527620798837
H        -2.18554461030013    2.15686708232589   -7.76961842462484
H        -0.38310964530373    3.72506921105339   -7.02284384358489
H        -0.11963925795931    2.71409171428220   -5.59798045642394
H         0.18634482594710    1.81354807137723   -8.49410402636896
H         1.50316275302509    2.17301186706534   -7.37610406061695
H         0.75854582241007    0.35687193644309   -5.87789018869820
H        -1.37835334272900   -0.13988382523690   -7.99688402398984
H        -1.09753300853595   -1.14182774802610   -6.56778602518542
H        -3.85462098326478    2.61003270353809   -5.97693952455174
H        -3.45964137298429    4.15414376336671   -7.87251329239085
H        -2.24720155385463    5.01918937766119   -6.92569377787236
H        -3.92890769079224    5.01998192526673   -6.40977723279198
H        -3.32967658375456    4.09506334901929   -4.13456866785812
H        -2.30128132481989    2.67756042861827   -3.99295753561675
H        -1.63800745731523    4.19554276623267   -4.60702652339255
H         1.00721876388317   -0.58519495053690   -8.77131599630235
H         1.28350990426693   -1.57173560821232   -7.33385866133210
H         2.35268662245057   -0.21561246474382   -7.69133720307628

