81
CSD_code = REFSAZ | q = 0 | S = 0 | Stoichiometry = C43H32ClN2O2Rh | MND = 4
Rh        4.72294622118244   12.23660036533864   14.95834885382316
Cl        5.95013224056931   14.16218691083503   15.21751632130475
O         2.41961167744294   14.13493457871113   15.17856927526550
O         3.21341206998715    9.67617081465504   14.64087452320600
N         7.35336395571487   11.39407739297240   13.73239207254408
N         7.42770189649125   11.23257357982863   15.87658887945337
C         3.23495422934242   13.34020427781948   15.08961305293692
C         3.79106824767151   10.66230910601364   14.76223426027322
C         6.57619909534583   11.39929942725824   14.84046768362273
C         8.67312656912204   11.22633052514728   14.07853332188854
H         9.45584210861118   11.18366015258885   13.35015895638772
C         8.71980539113503   11.13171709526966   15.41987905507269
H         9.55158210584898   10.99453165917641   16.07945038333583
C         6.97108610320335   11.18298269383292   12.32841582752637
C         5.50358432318323   11.47854807347098   12.03332837251874
C         5.03315881699351   12.78041273598681   12.25138936041890
H         5.71535816855772   13.55092678229050   12.58827200714457
C         3.74379225604452   13.13122945434591   11.87048444970519
H         3.40751840824253   14.14871496211729   12.00709487609897
C         2.90396325395755   12.18939847173557   11.30022228013883
H         1.89911657094936   12.46055836186561   11.01244949385760
C         3.37062795185027   10.90830544490842   11.06988271494003
H         2.73256643545869   10.17451324512598   10.60020751129206
C         4.66535266066212   10.55797428261663   11.42039548274763
H         5.01447399663697    9.56114836157989   11.19649184238699
C         7.15518959194725   10.92992283257302   17.28758012852721
C         7.33964475165060    9.71386820548640   12.11984553615276
C         6.64233601949104    8.76092329310855   12.85941464899416
H         5.82280888243504    9.07807502444147   13.49052735140588
C         6.98446496113616    7.42418449184183   12.79361661601046
H         6.42553982182247    6.69985312657080   13.36763608368114
C         8.04168856311770    7.01760401389168   11.99609571138865
H         8.31248010693762    5.97374605060879   11.94256306564921
C         8.75447174211155    7.95948461171834   11.27751606844922
H         9.58945050379163    7.65470970974494   10.66410908364912
C         8.41240325940372    9.30080491854508   11.34403207402197
H         8.99377287246482   10.02126132352450   10.78853120363132
C         7.70740432084001   12.14748215291238   11.40935030173017
C         7.63419434195187   11.94202895028560   10.03445024338925
H         7.09447992185766   11.08764725373206    9.65204374119496
C         8.23204838481647   12.82778725348180    9.15836581153115
H         8.17331397961264   12.65013149267274    8.09475106772849
C         8.89257431913255   13.94523669644710    9.64202937693845
H         9.35796315571170   14.63900102413176    8.95800064993796
C         8.93250721087914   14.17743997329828   11.00463401058311
H         9.41985680126517   15.06020019814672   11.39075560180382
C         8.33914604766387   13.28843789397916   11.88555155703341
H         8.35733505765233   13.50807125528043   12.94245417357258
C         5.65648610451161   10.85400881380568   17.58997612492267
C         4.98506273558786    9.65858460741308   17.80564787736344
H         5.50187008139224    8.71454102118596   17.72605557147748
C         3.64281350097710    9.65400078114357   18.15347220794193
H         3.14211986419486    8.71120759968568   18.31680179721825
C         2.95358603117646   10.84242163568402   18.30994734447466
H         1.91320360063206   10.83308848138036   18.59909824015885
C         3.61326763768630   12.04417000317995   18.11623554584623
H         3.09590604947296   12.97992893643791   18.27094877254780
C         4.94978653243690   12.05615921377942   17.73650228810208
H         5.47641163511312   13.00085896748832   17.68240676278021
C         7.83836620620255    9.57563593853446   17.50775471214618
C         8.72471809730082    9.32008090103366   18.54301730354074
H         8.96487675075304   10.08958423480308   19.25990678554435
C         9.32676292188525    8.07734408044449   18.66390917146761
H        10.01268931112674    7.89898394688306   19.47875142167963
C         9.06179872284374    7.07557666802583   17.74903831902190
H         9.53374400969929    6.10942954651560   17.84619703003455
C         8.19217831713324    7.32571184509604   16.70047923904870
H         7.98393523553862    6.55814555248746   15.96992580913296
C         7.58987609657708    8.56284837769519   16.58126643195619
H         6.91904620496654    8.74582005782041   15.75339055303789
C         7.71579071961118   12.01959033277337   18.19503537516141
C         8.39598076014071   13.12992417177827   17.71827203342050
H         8.54634571598151   13.27710100022297   16.66066770061266
C         8.85615321850650   14.09849328242021   18.59612000846232
H         9.37561852835512   14.96079045176682   18.20605385031928
C         8.64313379495556   13.97232433749880   19.95585756516846
H         9.00491647108938   14.72830836187098   20.63670121776308
C         7.94240600605187   12.87858623150008   20.43782891864044
H         7.75038372931997   12.77941147595373   21.49606194536843
C         7.47480638964283   11.91616660833031   19.56422725718904
H         6.90123964728066   11.08096203342405   19.94122985356177

