26
CSD_code = REFVAC | q = -1 | S = 0 | Stoichiometry = C7H11AuCl3N4(1-) | MND = 4
Au       -3.65983296010796   -0.97671828785232    9.77623217359950
Cl       -1.68321956769714   -0.26694454132446   10.64742066365723
Cl       -5.56511906102324   -1.40662529907318    8.61835591687638
Cl       -3.26789085128722   -3.18481997777849   10.26738332978993
N        -3.52570399397310    1.53076681666514    8.26359463814389
N        -4.67473264846326    1.78021771988757   10.06709898092983
C        -3.99482145246118    0.90184399894941    9.36714204254963
N        -3.93589390336931    2.79761531687936    8.32545371176903
N        -4.61373139971888    2.92321601806952    9.39379739356041
C        -2.68958124820483    1.02171859510871    7.21042812870681
H        -2.69725502801471   -0.07280471568637    7.29716555232695
C        -1.26123373413821    1.53889019981974    7.39508220077337
H        -0.88225475208123    1.20622397837026    8.36409633437129
H        -1.28421552857571    2.63146314477531    7.39027551826189
C        -3.25227524122811    1.43746128608132    5.85253405934494
H        -3.31418018580428    2.52737459433507    5.82182429657596
H        -4.26158161069062    1.03505227457939    5.74123936272936
C        -0.37138046109162    1.02602193501862    6.26919277734447
H         0.64147947369202    1.41339423082739    6.39802827467691
H        -0.32174340431816   -0.06411715807644    6.31975636396227
C        -2.35018618707641    0.92543672977930    4.73513690871080
H        -2.33943764578725   -0.16696125975582    4.75371288296500
H        -2.74893897152356    1.24056332762417    3.76812776129895
C        -0.92763722970070    1.44841083613835    4.91228411481843
H        -0.93282199226985    2.53924838942112    4.84706786872604
H        -0.28881041508910    1.06647184722833    4.11226874353688

