38
CSD_code = REFVUV | q = 0 | S = 0 | Stoichiometry = C17H13ClN4OPdS | MND = 4
Pd        5.16337531158781    6.89334624786112   14.45471291337674
S         5.83918523012529    6.53088369115098   12.28689627349526
N         3.41587786453008    5.42872070145570   12.64705738769810
N         3.52831289047547    5.91125427509353   13.89926931913054
N         4.34208542069275    5.22037934029548   10.56924560838841
H         3.58346670545879    4.62396502575369   10.29078695721090
H         5.14915324834267    5.31185742881796    9.97890505201535
N         6.76271811902057    7.90499875161377   15.11610261624653
C         2.55831999833023    5.74742423314416   14.74792259027196
H         2.74411640560627    6.15877734183487   15.73676058531475
C         4.41434444058811    5.65801627187211   11.84087091698541
C         6.64204121554214    8.24403878467635   16.42539674747370
C         7.65217277732497    8.96812821411074   17.11621201826975
C         8.89341921734720    8.97327917300538   15.05933546145076
H         9.75836663907143    9.23462729235526   14.47004165520707
C         7.85059120475357    8.25702473817319   14.45538207820936
H         7.91581374282408    7.97060691876466   13.41158761118168
C         5.43704617426688    7.83467166454439   17.08635252086450
C         8.79923016795859    9.32779010922194   16.37879025566911
H         9.58979609472629    9.87963233879930   16.86656413331318
C         5.29831793227499    8.17335294561896   18.43346199004383
H         4.40007563110570    7.87486147093419   18.95169187317331
C         7.45202694763375    9.27813375668476   18.46970588292401
H         8.21291909007666    9.82712913119621   19.00251853399316
O         4.53740343321491    7.17888527869856   16.42235126204589
C         0.42104578506869    5.05545610849722   15.68194850034794
H         0.74173874792776    5.49628734533537   16.61418778751865
C         0.83666625403175    4.52224894793962   13.37396335149056
H         1.48332564147090    4.55190142745160   12.51280623952436
C         1.27724357268243    5.09958147106604   14.57116347844383
C        -1.23022350252789    3.89411510580172   14.40642185662835
C        -0.81935156183479    4.46019391091392   15.60591409204636
H        -1.46988426169404    4.43095929617946   16.46617470238930
C        -0.40512606758115    3.92535812086035   13.29191165950944
H        -0.73815207848476    3.48312902994950   12.36570238620234
C         6.29395153010562    8.88037023358393   19.09777659323047
H         6.14742101585007    9.12269657414534   20.14077331271665
Cl       -2.78283097788483    3.14581730259922   14.30283379599932

