52
CSD_code = REFYAD | q = 0 | S = 0 | Stoichiometry = C18H30B3Ir | MND = 10
Ir        2.31204548942508    7.78259151965149    2.82289810264076
B         1.16258111866965    8.05677016285057    1.11888434981507
H         0.81807676875346    9.13166521631681    0.79105179492259
B         0.33922693493944    6.55467349226354    2.17468031328694
H        -0.61153662387898    6.63444846115563    2.86711839436780
B         2.69410016778963    6.83048113966992    0.64139634505249
H         3.67866397600958    7.14012623096195    0.07267286626781
C         1.59102512219361    5.74586048551199    2.64539269026889
C         1.51561275966214    4.76337117240326    3.78489020907034
H         1.48332720045768    3.74935246445115    3.38467943376327
H         0.61597646179197    4.92225852945013    4.37400898853100
H         2.38032349111173    4.82840808600109    4.44489236479644
C         2.76315825671865    5.88058842629969    1.88084245270106
C         3.97859301494173    5.03677773003053    2.16190885952954
H         4.21043974249879    4.98182463129404    3.22480024957862
H         4.84666827493408    5.42258483337244    1.63279881332638
H         3.79648330533054    4.01959439143205    1.81282776474046
C         1.33856822670031    6.86759435474404   -0.12717042377166
C         1.27366338923687    7.04273476184378   -1.61821179108622
H         0.91390446687923    6.12641015728687   -2.08695198974469
H         2.25622782834075    7.27062768227887   -2.02329428650119
H         0.59126819282874    7.84714897105499   -1.89461939389439
C         0.16537719789020    6.72405612928707    0.63578738385200
C        -1.18777265364747    6.74326323411125   -0.01697818449685
H        -1.31052712112141    7.62204264654761   -0.65104735657680
H        -1.97727297191440    6.74542501033239    0.73031663854376
H        -1.31236783660468    5.86069577598532   -0.64505626420716
C         4.00686754578774    9.07245175161154    3.45701511723585
C         2.80124071803914    9.84751960570550    3.38045710975215
C         1.90313635600668    9.31938817022326    4.35199047920145
C         2.59100536543271    8.27812851358465    5.07701938227744
C         3.88333258744286    8.14786165311983    4.54492641985916
C         5.27041369069776    9.35639038207912    2.71002652185117
H         5.88871938954935   10.05974636562370    3.27198922458925
H         5.05644567025573    9.79268846558396    1.73751383661827
H         5.84843576166856    8.44735895550743    2.55791351938314
C         2.62202089934633   11.10947687502513    2.59445884427880
H         3.02147919366778   11.95753761968529    3.15430188087412
H         1.57033422381205   11.29740183840767    2.39519075730463
H         3.14329220774384   11.05388342591459    1.64210651572677
C         0.58449348764541    9.90148299921751    4.75246139651444
H         0.72050768814614   10.60682537759278    5.57514967079377
H        -0.09976852361854    9.12403151619024    5.08436096764603
H         0.12463689114943   10.42970448689937    3.92136272814844
C         2.02648246104541    7.57375547227695    6.26787332522820
H         2.60242506529573    6.68411382961094    6.51214045976933
H         0.99452282259421    7.27608774595364    6.08969727724559
H         2.03933843527474    8.23466374985669    7.13691052379520
C         4.98357407230436    7.27315517421516    5.05446669472030
H         5.60512198916218    6.91047108281065    4.23782019467011
H         4.58940379906671    6.41415010741611    5.59467633874970
H         5.62490402254577    7.83294913930047    5.73875248899104

