51
CSD_code = REGBUA | q = 0 | S = 0 | Stoichiometry = C20H24FeN2S4 | MND = 6
Fe        0.00531633989720    1.44471282454227   -0.01501707953804
S        -1.55017613925454    1.66708321775107    1.43349149870879
S        -1.75748263175815    2.09029273321035   -1.77856583160102
S         1.76704426094579    2.11369024825930    1.74038763846391
S         1.56052798043399    1.65136422186432   -1.46614820543940
C        -3.21098261540498    2.11398053199540   -0.73251660745655
C        -4.44706868617372    2.36042812124398   -1.30607239613297
H        -4.50550454453973    2.53811267528438   -2.36949869456431
C        -5.58684810037881    2.37939766873111   -0.52284227493734
H        -6.54919078024512    2.56715859275070   -0.97389605131368
C        -5.48160205079929    2.16610201871313    0.84479171957357
H        -6.36673410566153    2.18478113945089    1.46343982906014
C        -4.24999658522067    1.93985758860720    1.42239307077539
H        -4.15737137007482    1.78502804068322    2.48687432364121
C        -3.09032754535287    1.91239267772886    0.64449724111213
C         3.22068631094671    2.12638980754005    0.69435099323797
C         4.45643788835179    2.38116292577601    1.26500198642305
H         4.51468606774658    2.57082572859257    2.32636804365049
C         5.59612270361641    2.39315286310651    0.48149817515715
H         6.55822108560382    2.58734556714643    0.93035303657307
C         5.49110127528329    2.16459844004558   -0.88368737524971
H         6.37611666984381    2.17813846836269   -1.50264742751735
C         4.25983357602077    1.92974084803738   -1.45857840061520
H         4.16738508735950    1.76297661724421   -2.52127303782719
C         3.10030479657929    1.90889905758345   -0.68026501207374
N        -0.99422461074897   -0.84448832969594   -0.74715287930882
C        -2.00559174424650    0.46602062913331   -2.59187977255757
H        -1.13509275523065    0.35233299858989   -3.23407744848975
H        -2.90220256837447    0.53986193232512   -3.20726727439484
C        -2.15171811255581   -0.68832182161389   -1.61013457452788
H        -2.35411879676580   -1.61012585010610   -2.18420108049282
H        -3.02243832292473   -0.48989350526038   -0.97750368127028
C         0.12139964193637   -1.49023309508876   -1.42563483377889
H         0.40970857120422   -0.87533159533885   -2.27779679609547
H        -0.17166490854265   -2.48848490706057   -1.79435232263658
C         1.30584759416532   -1.60744952204284   -0.45085094158491
H         2.20516431928331   -1.20208228047751   -0.91670613724990
H         1.49600871486502   -2.66321472403880   -0.19475793544999
N         1.00642051348884   -0.83435127106295    0.74533421649657
C         2.01645211518089    0.49985141739645    2.57373900798841
H         1.14585291169388    0.39341108798808    3.21703078253976
H         2.91282095983370    0.58207434113803    3.18841696251192
C         2.16373016390817   -0.66642903847175    1.60637900867173
H         2.36696889231866   -1.58085641113975    2.19183000462418
H         3.03429722529041   -0.47499915204308    0.97139868373570
C        -0.10853135789432   -1.47299141968750    1.43160419234353
H         0.18554390051483   -2.46641115696270    1.81233934868998
H        -0.39747236258790   -0.84815291069779    2.27628808225479
C        -1.29286986460256   -1.60325825064743    0.45835645552437
H        -2.19256568370373   -1.19313183442627    0.91929182658077
H        -1.48202332328832   -2.66225795494365    0.21516794376625

