134
CSD_code = REGDEN | q = 0 | S = 0 | Stoichiometry = C71H57Cl2P3Ru | MND = 6
Ru        3.32347734033143    3.98480705865226   -5.09662195437089
Cl        1.16703097523292    4.90755482534621   -4.66067523004880
Cl        4.28208332859957    6.19610376787307   -5.11314841480570
P         3.47187274990164    3.66298532773618   -2.81544557416792
P         5.57224960731913    3.96505493707513   -5.55365993408841
P         2.74796511671020    3.80329013643839   -7.33293412857853
C         2.89442699453373    2.18292861180590   -5.05467036368979
C         2.59711977245727    0.91573038985972   -4.98191690155727
H         3.39382976807202    0.19039356812570   -5.12408065571328
C         1.26436152627283    0.37998347858009   -4.73351615624576
C         1.06014169009628   -0.99523966301914   -4.64127824858878
H         1.89722832928334   -1.67099000550155   -4.76023408385864
C        -0.20273179980776   -1.49950547533772   -4.39331290724674
H        -0.34892673950309   -2.56845121747896   -4.32137658895024
C        -1.27803018757587   -0.64161890835930   -4.23647984472416
H        -2.26359922689430   -1.03901400329671   -4.04173006302485
C        -1.08333641500886    0.72819339329746   -4.33045383637728
H        -1.91741015915874    1.40388028072912   -4.21057899912066
C         0.17363821351696    1.23788905230699   -4.57690798102887
H         0.32789185593654    2.30486601078599   -4.64617829413231
C         4.83511496965063    2.61707258753193   -2.46353951240848
C         5.75429389447859    1.82613806509066   -2.47955985269930
C         6.79399800553302    0.87330918565498   -2.46471724094102
C         6.53315837103761   -0.44577823745133   -2.09293263524773
H         5.54008292289089   -0.72098933757216   -1.76756318432796
C         7.53654649353374   -1.39262564809555   -2.14773051388923
H         7.32149294778521   -2.41252787563708   -1.86133577873945
C         8.81560636065630   -1.05505075611525   -2.57067812692242
C         9.07185591783654    0.26602446092613   -2.92627282872175
H        10.06441464653746    0.54325285810783   -3.25204613253078
C         8.08183119419917    1.22354284358163   -2.87403984868055
H         8.28743831210340    2.24460109282947   -3.15673027844863
C         9.90248153531692   -2.08101550608385   -2.65705232918331
H         9.58250982320360   -3.02676316520352   -2.22662052293425
H        10.79333401181335   -1.74098615709541   -2.13114747391753
H        10.17357493081613   -2.24651529584555   -3.69961673191074
C         3.61105782631014    5.00987071664773   -1.60222284878426
C         2.99932443716635    6.22841639226235   -1.87542332156127
H         2.47871956225656    6.37045276040512   -2.81455315343616
C         3.07381829774340    7.25348924782803   -0.94917818100932
H         2.60308594726626    8.20247262803924   -1.15951786958573
C         3.75627525163485    7.06453195691553    0.24106431594783
H         3.81743049965329    7.86746814525815    0.96142887343918
C         4.36572726075140    5.84849776322604    0.51132848171185
H         4.89866660183714    5.70502743643283    1.44051665869545
C         4.29442746743469    4.81715004629912   -0.40560449202585
H         4.77263277464153    3.86616377697450   -0.21135371977280
C         2.09878876327969    2.71770038358964   -2.08469914131992
C         2.20591944773919    1.34960676371591   -1.86212777044547
H         3.13079430822611    0.84289241653383   -2.09870943785235
C         1.13161185323081    0.64738910136059   -1.34862833616272
H         1.21578418234724   -0.41703280914739   -1.18318028619878
C        -0.05325180632549    1.30231477431729   -1.05893810010831
H        -0.89393842594058    0.74818887808844   -0.66797211472309
C        -0.15901119010976    2.66673740467174   -1.27129301865110
H        -1.08198110920995    3.17995618350623   -1.04454177443818
C         0.91301770024763    3.37754231221313   -1.77807189561894
H         0.82663462876306    4.43991060195423   -1.95640048657391
C         6.17869398617505    2.30698697868596   -5.74441459366308
C         6.49940959833531    1.13839766190663   -5.73009699018482
C         6.94628608881323   -0.20100106502438   -5.73862607158557
C         8.21169882393566   -0.52148118448371   -6.22931833618412
H         8.84064746240815    0.26343692085920   -6.62350352211137
C         8.65405181905493   -1.82835483682118   -6.20656243483861
H         9.63820601165770   -2.06362586224879   -6.58898378342737
C         7.85627986394601   -2.84647576523816   -5.69795715237719
C         6.59212666846252   -2.52207029459239   -5.21922142651557
H         5.95867464962997   -3.30340575791240   -4.82381999019198
C         6.13931483327270   -1.22043913174696   -5.23500687373856
H         5.16109917624282   -0.97772015545252   -4.84748369686886
C         8.35280549556722   -4.25830213255612   -5.63358302880945
H         7.55583944080567   -4.96109041825503   -5.86664713424503
H         8.70779876310680   -4.48133071235000   -4.62670786482240
H         9.17778419536714   -4.41688639882262   -6.32447876301544
C         6.87610041837038    4.54175229174692   -4.41527615570412
C         8.19400989605384    4.31836997951589   -4.80721057600468
H         8.39292644807058    3.83480501556361   -5.75474802045905
C         9.23471470307529    4.71047181036678   -3.98691474879024
H        10.25621274592783    4.54088175471777   -4.29622084541840
C         8.96971412270991    5.31545944479705   -2.76739343870195
H         9.78547548668375    5.61635068460389   -2.12645743370502
C         7.66046582014592    5.53581168032349   -2.37580501850152
H         7.44577097826109    6.00958110644709   -1.42906330992970
C         6.61698172288512    5.15445819449438   -3.20018603245738
H         5.59742054672102    5.35532748607296   -2.90258119655295
C         6.15549247109443    4.67108287481532   -7.13073646270831
C         6.16301140538950    3.87591818767591   -8.27092756334834
H         5.84696636413173    2.84549957416026   -8.19472589877472
C         6.56972280873398    4.40273033447064   -9.48288767192891
H         6.56595039911145    3.78090913355248  -10.36660070982013
C         6.97483097578509    5.72387098988622   -9.56446818319925
H         7.28278866352603    6.13757835780790  -10.51353363337967
C         6.99270225248756    6.51148133162309   -8.42532703993889
H         7.32121737458901    7.53888603418457   -8.48343603769669
C         6.59123308968259    5.98990811703030   -7.20981630323481
H         6.60629368805484    6.60718424466924   -6.32304488084974
C         3.34975233244673    2.26283920421483   -7.92192540916713
C         3.84085921904575    1.16688661361152   -8.08637093609013
C         4.40874706246057   -0.11097727070702   -8.26826521220595
C         3.70964700943828   -1.24813741785210   -7.85969042401323
H         2.71786941879578   -1.14013226716818   -7.44428813701103
C         4.28616052966713   -2.49539894599077   -7.98543524240858
H         3.73747211615094   -3.36996081885681   -7.66482475415125
C         5.56135403489203   -2.64547532422598   -8.51866257897735
C         6.25030580460242   -1.50857656068355   -8.92657752093271
H         7.24327819412671   -1.61036214126886   -9.34083145598155
C         5.68835078450974   -0.25484020488328   -8.80636093820524
H         6.23666345552100    0.62102366563962   -9.12164532986141
C         6.17275743662841   -4.00191826009598   -8.68153844871729
H         5.73102918277173   -4.71387629538670   -7.98847989059609
H         7.24675316460501   -3.96199033881564   -8.51570759581226
H         6.00209915836272   -4.36753389715352   -9.69508658626399
C         0.95920493230835    3.61692126230857   -7.59310271120766
C         0.17539571811670    4.76136984778524   -7.70259376626845
H         0.64374642477196    5.73677746122338   -7.68397990864268
C        -1.19675611631113    4.64554844793789   -7.81514651428290
H        -1.80652705783686    5.53387838801017   -7.89208601387254
C        -1.79033576335662    3.39313948102608   -7.81537243045973
H        -2.86422022888615    3.30596261904710   -7.89521972104996
C        -1.01036618296794    2.25428791778357   -7.70628128712362
H        -1.47201327402669    1.27742053157152   -7.69740676825705
C         0.36382689495330    2.36168014457971   -7.59286101189940
H         0.97823434860715    1.47782535543847   -7.49499167844942
C         3.17315259428793    4.93777986083189   -8.69083735675696
C         3.29532589212474    4.45798746467268   -9.99059353516900
H         3.16834475837727    3.40100720733060  -10.18247573146917
C         3.58509967124609    5.33303494222621  -11.01921487763196
H         3.68319392041915    4.96175646018961  -12.02936945003084
C         3.75021100773702    6.68455687195065  -10.75841002672501
H         3.98142392009760    7.36400908853164  -11.56594513015812
C         3.61842293335000    7.16416570537271   -9.46684100729161
H         3.74517314365541    8.21733291910499   -9.26322986638294
C         3.32732034761152    6.29393099580448   -8.43152679639826
H         3.23127259688963    6.66402325086138   -7.41929035613608

