23
CSD_code = REGDIR | q = 0 | S = 0 | Stoichiometry = C8H10Cl3PTi | MND = 8
Ti        0.18712458620986    3.00935580787595    2.70665813432678
Cl        1.38359299386228    3.84014832450731    4.27957862310799
Cl       -1.76526642348478    3.63238418024078    3.41745027916709
Cl        0.49867972921965    4.57316526894715    1.26466539751886
P         1.93275611033116    1.26701814336620    1.98176286094200
C         0.53649877449738    1.48578346023831    0.91657319121950
H         0.62851533188493    1.74021423634763   -0.13421993341446
C        -0.68818028745697    1.20103381967966    1.53360094971626
H        -1.63935195881071    1.17675967698360    1.00738501090107
C        -0.53605846871000    0.80627342379983    2.89099035228647
C        -1.66453800009881    0.33343917956185    3.77006369781264
H        -2.19636864401644   -0.47655234181327    3.26094976779282
H        -2.37609306770092    1.15432198756019    3.91090775922976
C        -1.15488081531456   -0.14686200480420    5.13248837381185
H        -1.97593321885356   -0.13553227803439    5.84986320011516
H        -0.79611157521164   -1.17567333910845    5.05056731245413
C        -0.00700215988145    0.73501175739334    5.61967280820696
H         0.24789992533362    0.48736414965053    6.65055878956690
H        -0.30580809197905    1.79274296339496    5.57740582071464
C         1.20461023244246    0.51937177237383    4.71269434536893
H         2.04407128092431    1.14688996001073    5.02664629154486
H         1.52777787271592   -0.52643544181717    4.77125049721591
C         0.80786587409799    0.84837729364671    3.30068647039461

