29
CSD_code = REGDOX | q = 0 | S = 0 | Stoichiometry = C12H12Cl3PTi | MND = 8
Ti        9.96237063667174    2.03489082632906    5.49581462318117
P        12.02075670075805    3.33917401354972    4.64391128184642
Cl        9.56425795521230    0.47419969701883    4.06942275963752
Cl        8.06926150232648    1.94436264744294    6.55593417558452
Cl       11.16328590734562    0.89565929598268    6.85906621298296
C        11.02534551199639    4.03559180829866    5.95097910778585
C         9.70139082776552    4.32870936868578    5.54422068869648
C         9.44958866450743    3.89155284866627    4.21118284526040
C        10.58980592887543    3.33704017544369    3.60886238219466
H        10.60714463592623    2.99812516341361    2.57797503257386
C         8.12990256142595    4.06398017762858    3.51757932470261
H         7.97257482653932    5.11282853887905    3.25782482133201
H         7.31350165229369    3.74730409479124    4.16950810332577
H         8.10179808861883    3.47238035270668    2.60316210831337
C         8.72948365611418    5.16755958498682    6.32373462963469
H         9.21319229507498    5.59526266306946    7.19975676867181
H         7.86835062108101    4.58169831073089    6.64909869500220
H         8.36742927167895    5.97957573446742    5.69144781616023
C        11.55746030948818    4.25188875674482    7.30072849471470
C        12.82090365253973    4.81012928057000    7.48113719002074
H        13.39113667427044    5.10645032780649    6.61037931267131
C        13.33265234207686    4.98419961671463    8.75357769445040
H        14.31250577240430    5.41871740851705    8.88374426775959
C        12.59312649609693    4.59578898216730    9.85850186898315
H        12.99518900627508    4.72762504527788   10.85171019996284
C        11.34174538267886    4.02417211379658    9.68768945484130
H        10.77243848803815    3.70449263211857   10.54773004536771
C        10.82230105445134    3.84891869548055    8.41859877648768
H         9.85609957746725    3.36872183871316    8.28282131785318

