61
CSD_code = REGGEP | q = 0 | S = 0 | Stoichiometry = C22H29CrO6PSi2 | MND = 6
Cr        4.25949251537671    2.16229424805410    9.65351535049298
P         3.53101836584071    3.19916442314575   11.71441138727216
Si        2.25451396824508    4.99664321567980   14.01157481376249
Si        4.38247723486291    6.09912664449010   11.70027947473202
O         7.22268760787513    2.11116669957694   10.18990452543475
O         4.25788899126852    4.49800224612277    7.76180444958102
O         1.50913721916028    1.68215691695488    8.53951851024835
O         4.21979236828700   -0.61782049458973   10.80244688618462
O         5.01025599996404    0.69335381471825    7.15797199662624
O         3.37961231987893    1.73115804215122   14.04277087558938
C         6.08772963469255    2.22425417847343   10.05818737298889
C         4.27710669621875    3.70445973070954    8.59280722717080
C         2.50719944845591    1.91857323491404    9.05829994838972
C         4.21019239797103    0.48212758032042   10.47358500630364
C         4.73491234735303    1.26512470324126    8.11820867014345
C         2.81660087743952    1.91869217435471   12.81778892143480
C         1.76556714873822    1.20975618309619   12.36640058137869
H         1.41193352042334    1.48574741172829   11.37775325728308
C         1.03828764363052    0.12892984502920   12.99928872850735
C         1.24565875590410   -0.26316127971281   14.32404802795059
H         1.96670047907949    0.26466493127285   14.92589731088089
C         0.53404489645932   -1.31770868801482   14.86262700335821
H         0.70609442427416   -1.60993208148882   15.88862179589023
C        -0.39893802608385   -2.00007849634272   14.09889333714484
H        -0.95288898176064   -2.82337141051476   14.52513798374276
C        -0.61889170671682   -1.61847645729449   12.78493894510808
H        -1.34535811458381   -2.14532283465903   12.18348921109114
C         0.08873058886673   -0.56507181849609   12.24222118422336
H        -0.08376549392781   -0.27299924629124   11.21589737880831
C         4.78479365015354    1.90643918553333   14.11757236740130
H         5.03742216597766    2.97168848915225   14.00938511545091
H         5.27003647244112    1.34842520763568   13.30204977216587
C         5.25257624029489    1.38299131444578   15.46553735361383
H         4.75077592984810    1.91854362869182   16.26714185282448
H         6.32552690225150    1.51970592253440   15.56249150896870
H         5.01842355803705    0.32565844012151   15.55591446225418
C         3.39828605703126    4.67287807173590   12.51012149833437
C         1.33876075156497    6.62819786156627   13.62768836916698
H         2.01099220202700    7.45180251241011   13.42315561195527
H         0.71502090599816    6.91488541191209   14.46826705516004
H         0.68953149801059    6.51362259669745   12.76553104453196
C         3.31827114061231    5.15757251741707   15.58903727080085
H         4.18419587181086    5.79156295967064   15.43242242366253
H         3.67190135864437    4.18787938677887   15.92356880421805
H         2.73622731914850    5.58792793699193   16.39801545261135
C         0.85580051612032    3.73992622711995   14.32450355942389
H         0.34346543240909    3.47424575163104   13.40517499667660
H         0.11877808533869    4.17331147025235   14.99514971531133
H         1.21098199798135    2.82327952543316   14.77937624519681
C         3.31991619541735    6.91147998211671   10.34287088911979
H         2.46048869429088    7.42370189450188   10.76244989033747
H         2.95086308593492    6.16862609554156    9.64161112892879
H         3.89592828931003    7.63954368817108    9.78059661105892
C         6.00519235793440    5.41147033739780   10.96858047364495
H         6.41455489561334    4.62258500133630   11.59473754911837
H         6.75923622428057    6.18839732474722   10.88798647665943
H         5.85621292035040    4.99802567029543    9.97612062635804
C         4.94113440522106    7.37688079931091   13.00489835695788
H         5.69274360338777    6.95861721853400   13.66715194244252
H         4.12764870420350    7.74097772172749   13.61987139813827
H         5.38731944160993    8.23509643177907   12.51233001600281

