70
CSD_code = REGGER | q = 1 | S = 0 | Stoichiometry = C32H30BrClN5Ru(1+) | MND = 9
Ru        7.29275336007751    7.34101815739270    9.02310632725397
Br        7.92997004368043    5.70768064404134   16.40935507013745
Cl        7.07409118690733    9.40761734290241    7.91161155100693
N         5.71928394151522    9.84534886110164   10.67914004429995
H         6.21845311057798    9.91094038945347    9.78041481221449
N         3.77690406716602    9.45872475524474   14.24799276898164
H         2.91134152977876    9.82400574890242   14.60937573473319
N         7.44298683914402    8.54801230244368   11.62469516520300
N         8.12023907029106    8.34372590653073   10.51974647581184
N         9.19035950717128    7.47399613148711    8.43293152128454
C         2.54946770182691   11.20261026949860   11.99649347705410
H         1.96078565111103   11.19300110452516   12.90103165476604
C         2.11535750043851   11.90837210138389   10.89906970514068
H         1.18582359148103   12.45342804322303   10.94170224080924
C         2.87342307899802   11.92342935796366    9.72849744190828
H         2.52311494511043   12.47904961291741    8.87295932135801
C         4.06546170181351   11.23862909112276    9.65763565877819
H         4.66014532993111   11.24639440870784    8.75665003674093
C         4.52542449297107   10.52116889138819   10.76425265435220
C         6.26975456210445    9.12338900390705   11.69008679594649
C         5.51639349802700    9.05114046776401   12.89074375054471
C         5.73725425328601    8.33887534818560   14.10751595091030
C         6.74515545017408    7.48787693370758   14.54530859341224
H         7.60304604413497    7.28398408239212   13.92602181394288
C         6.59758106335544    6.92691109432994   15.79605247385951
C         5.50364114034382    7.20434139198204   16.61938175992163
H         5.44289910603391    6.74204546213463   17.59186905883076
C         4.50517616369236    8.05916766928830   16.19830756638421
H         3.66113103291364    8.27534039570339   16.83379834680104
C         4.62244309048628    8.61861517093613   14.93325244942671
C         4.29561604267174    9.72019068508511   13.02072607517365
C         3.75755342956556   10.49549412678714   11.95122963059115
C         9.39908727888015    8.62340790576595   10.45504276243530
C        10.12828580066507    9.33799846518436   11.54486354924112
H         9.47345455245782    9.44406262797649   12.40592301124812
H        10.43562477940488   10.32808910959722   11.21100368370796
H        11.01786762209070    8.78319097056465   11.83585994348560
C        10.02582118113720    8.17016670989523    9.24402492094033
C         9.64156082071381    7.03726352884920    7.25987819005485
H         8.92978959240583    6.51928730946114    6.62887504102433
C        10.94070084904917    7.24108843212219    6.83916489309441
H        11.26016147502327    6.86717403031752    5.88077979184484
C        11.81427610141964    7.94329180899167    7.66549939616196
H        12.83148739118758    8.12390048105025    7.35723463062245
C        11.35278576563973    8.41538979537294    8.87568055460097
H        11.98966822523684    8.98125957314547    9.53474992371084
C         5.51341225259897    6.38540535803625    7.72587252513579
C         5.01396430093651    6.91345653686858    8.95848045534613
H         4.16372725956958    7.58823524477476    8.92842878061144
C         5.49093091252311    6.44701759017782   10.18463651278155
H         5.00254416232326    6.74931795966718   11.10529312036909
C         6.58324287514147    5.54012512039760   10.25000798891313
C         7.12723890515398    5.08388883439728    9.03074417841484
H         7.90479154183682    4.32854075540697    9.04039677611139
C         6.55108356013942    5.45527940307501    7.78617781485119
H         6.89652930628633    4.97464671187795    6.87755973984310
C         4.88247758980720    6.79958471309087    6.43467196606530
H         5.33321039795372    6.28407060003464    5.59027479789349
H         4.99618204838767    7.87459942690372    6.28824860735088
H         3.81532023833651    6.58002697835138    6.45331764749130
C         7.04591003923735    5.00947414406740   11.58497651674552
H         6.64568755651281    5.66720314470331   12.36452548076396
C         8.57042289517398    4.99479614799848   11.70804025488920
H         8.98631148785859    5.96669733046418   11.44119427352295
H         9.01338452307979    4.23717708590390   11.06653662263921
H         8.85101706059522    4.76916098468461   12.73327421761615
C         6.46886405731783    3.60563712608184   11.79761289112336
H         6.84608332585757    2.91509979977320   11.04685890693422
H         5.38285028200433    3.62141051879996   11.73836296204412
H         6.75561045921685    3.23775278388654   12.77867074269263

