85
CSD_code = REGROK | q = 1 | S = 0 | Stoichiometry = C40H41P2RuS(1+) | MND = 8
Ru        9.42351473125560    2.10248365104486   19.83226084851526
C         9.03506147289989   -1.50780998216876   19.37513232288369
C         9.72735966333525   -2.66033600850940   19.01540078252470
H        10.51907070306051   -2.61682306717389   18.28218625168942
C         9.40166170829713   -3.87307267365524   19.59684266164358
H         9.94731335043675   -4.76099049531361   19.31537567641904
C         8.38318310540765   -3.95271605520700   20.53161955706742
H         8.13859511951674   -4.90038472255043   20.98591807527380
C         7.67515319294089   -2.81324748441701   20.87784729194966
H         6.87314866214936   -2.86962179724226   21.59820975586400
C         7.99939528203577   -1.60025569950239   20.30146015779620
H         7.44928941268178   -0.70790655057572   20.57128939042017
C        10.94048181913967   -0.14729873938123   17.75603079645938
C        12.01861796115545   -0.57911274616862   18.53157988628529
H        11.85792882793557   -0.80750444027340   19.57800574097231
C        13.27062836375281   -0.73752762914459   17.97153789749166
H        14.09557285561135   -1.07794696125783   18.57936533248443
C        13.46592986299547   -0.45947845758793   16.62706087967597
H        14.44350665492432   -0.57971567784377   16.18652200325636
C        12.40313038004031   -0.02978809331032   15.85138106424099
H        12.55111990794466    0.18270517060100   14.80322126620058
C        11.14534071208602    0.13141857686763   16.40931113579177
H        10.33264287285685    0.46595440574825   15.78226568401770
C         7.80372345366472    3.53386986103642   17.06501823965147
C         9.02116846014761    3.42375372128075   16.39793791933545
H         9.80980644084685    2.82124650830026   16.83561402009074
C         9.22370134823354    4.08397916742479   15.20011543273850
H        10.17030620177832    3.99542093881811   14.68810357253504
C         8.21177417549054    4.86331262127864   14.66235285039582
H         8.36948281337341    5.38446659922243   13.73076296667769
C         6.99835431239804    4.97658392959200   15.32248318465923
H         6.21051550298243    5.58336519306078   14.90266351727227
C         6.78772532397579    4.31336483566202   16.51811265024564
H         5.83896608324285    4.40386681844741   17.02700456587008
C         6.23788913327431    3.41931675132184   19.46076825664275
C         6.38684540076240    4.79293570281035   19.65870760548059
H         7.22821404227340    5.30326980324355   19.20625013315221
C         5.46504626332215    5.49312427283470   20.41346130638048
H         5.57914613473119    6.55750173500677   20.55402109500214
C         4.39494761467952    4.82572800079585   20.99073393589335
H         3.67335999793818    5.37185537149330   21.57846039108082
C         4.25567009423812    3.45822945203992   20.81753970492105
H         3.42567840937028    2.93898887663131   21.27242365397279
C         5.17635606844806    2.75075369677236   20.06379459075704
H         5.06521449435408    1.68323870850944   19.94324690684992
C        10.19444463194524    4.00407101729224   20.73054118667949
H         9.68139016794827    4.79139467564496   21.26532694453940
C        10.91623762944792    2.92584728225948   21.32642846371742
H        10.99068032343284    2.72447380344824   22.38861445114757
C        11.64813773070100    2.26992298753157   20.32214065024851
H        12.39705582532512    1.50705202589033   20.47518139383240
C        11.37930091903573    2.92896859154513   19.08425862125930
H        11.91593640338193    2.75450116720785   18.16024527999517
C        10.51396244991827    4.02194675911567   19.35455276563782
H        10.22286247347408    4.78684829718589   18.64739872609193
C         8.05505371735100    0.22626909138299   17.32191279572114
H         8.46279004091965    0.85989297895174   16.52302806525545
C         6.86271652381518    0.97860396265321   17.92941294737518
H         6.50077672620049    0.41789460131025   18.80426378822917
C         7.69971760970194   -1.13816811418079   16.74362665777938
H         8.60506190418624   -1.67494824663316   16.46411433634302
H         7.08520860157440   -1.02493197683072   15.85360462923020
H         7.15549039408054   -1.74003937282961   17.46836957278287
C         5.72299847327320    1.20191092065532   16.94265562088817
H         4.98489147401057    1.88438791985800   17.36065303154608
H         5.22480427922684    0.26191635019692   16.71778334561994
H         6.09610426572688    1.62783725643080   16.01320409652942
C         8.82112801717524    0.41943873209056   22.80495644073304
C         9.97673032559842   -0.22574454994572   22.39892236085804
H        10.35063493079224   -0.06178323667379   21.39497311022442
C        10.63605432072107   -1.06987951072199   23.27331286101709
H        11.53708171731237   -1.57209089311315   22.95621323384164
C        10.13976149221034   -1.26622744408071   24.55153600786238
H        10.65483033700307   -1.92190506371868   25.23594401574778
C         8.97873017909706   -0.62377901234480   24.94925611379326
H         8.58609039231594   -0.77983074942049   25.94207968092323
C         8.30690938547691    0.21362483205230   24.07567909409831
H         7.39239372506700    0.69529574040255   24.38354791815094
C         7.66765302938981    2.93758949755779   22.66231828423701
H         7.39177346924458    3.74418547780685   21.98918886263510
H         8.57087099629976    3.17824557117874   23.21364977909655
H         6.84475574835719    2.74206642173928   23.34366009410081
P         9.37922571711040    0.13231721470088   18.64137692168550
P         7.57729092195010    2.56868566194597   18.58553226151631
S         7.92742433840022    1.45304224421117   21.63973463048996

