60
CSD_code = REGTAY | q = 0 | S = 0 | Stoichiometry = C18H31BCl2N6PRh | MND = 6
Rh       -0.19207926619054    2.75994280683336    4.40868798904153
Cl        0.59842434667590    0.63446475607541    4.19189771649627
Cl        1.08841561366107    3.34828415730663    2.60892827394855
N        -1.08254371159954    4.70910289433004    4.45262172866267
N        -2.36915308440483    4.72769092595793    4.85530989339007
N        -1.38275722551940    2.10591522128540    6.04051968879973
N        -2.63961767765700    2.58262779532813    6.08210148262101
N        -1.79516931272559    2.26146224401512    3.22672426925070
N        -3.01096585808713    2.66999052768532    3.63984902636558
C         0.56795253406620    6.44275662889875    3.63423092353429
H         1.16842497102061    5.61221403756016    3.28284772164259
H         1.11992176564694    7.03195231672425    4.36639592618966
H         0.35001223941822    7.09407446756159    2.78881864883427
C        -0.71845679174684    5.96846394913018    4.20586588320461
C        -1.79258593090189    6.81449911213336    4.49895349192075
H        -1.80548646490169    7.88171120458144    4.40958537474935
C        -2.82271434942884    5.99306364426645    4.90240444419425
C        -4.19518820386005    6.37583438005772    5.32399897382102
H        -4.43179495968193    5.95535696447451    6.29930150180368
H        -4.93405574836149    6.01417030235078    4.61094155519159
H        -4.26463548651368    7.45905422442346    5.37864677284299
C        -0.03240852983596    0.45497029142805    7.39797333996580
H         0.37477291563464    0.01555804991137    6.49081897062010
H        -0.32502373675120   -0.33881660511763    8.08152419062974
H         0.73888177315736    1.05231194766458    7.88184722361605
C        -1.23163096876748    1.26904286345684    7.07049749971979
C        -2.42322266450703    1.23532406783180    7.79851053992656
H        -2.61593685196968    0.66031306267587    8.68129501492645
C        -3.29552580230326    2.07689410676364    7.13985991504702
C        -4.70325400134858    2.40187472487591    7.48654558834756
H        -4.83576816445476    3.47565123778376    7.60406067572174
H        -4.96632493084946    1.90915731944313    8.41878780332825
H        -5.38141938179910    2.06065418709730    6.70649193532712
C        -0.85367895703636    0.95899772232350    1.29632548051382
H        -0.01283150913341    1.63706562778692    1.17154544023202
H        -1.23372494931709    0.67163864629217    0.31903618914835
H        -0.48855167023208    0.07099537973504    1.81082261547471
C        -1.94054489281088    1.59683662188965    2.08089388938085
C        -3.29873078505525    1.58535294701548    1.75010769470339
H        -3.74075958143482    1.13242376893229    0.88621948204193
C        -3.94486746091342    2.27193492293356    2.75723784046984
C        -5.39753194097520    2.55407917489690    2.89624422304220
H        -5.79142600953305    2.11494708212831    3.81122115897296
H        -5.92756298369546    2.13068617852003    2.04736003578872
H        -5.58186899144007    3.62655521678936    2.92704932981173
C         2.85124893801023    4.55438451541289    5.18017169193072
H         2.42541879529292    5.54563058046557    5.29303972750762
H         3.12403971710206    4.39312328123226    4.13971827833297
H         3.73895780053555    4.47174985138858    5.80660568613514
C         2.86039073213898    1.93264369318466    5.99047470302711
H         3.35023346411471    1.74081777771212    5.03603481346215
H         2.38503180574690    1.01255362394285    6.30907935523372
H         3.59585786470879    2.25706563194857    6.72631644950990
C         1.25873524175978    3.91591646806573    7.38110064099933
H         0.77225068355502    4.88373813544317    7.26559209982340
H         2.17278889124215    4.03908623329862    7.95962852501564
H         0.57759917700258    3.25486591564820    7.90850081910649
B        -3.19954224498257    3.44512841577839    4.95099592248478
H        -4.33486544424855    3.69260194443885    5.13269486818186
P         1.64774725448874    3.27291282800579    5.70133905599579

