62
CSD_code = REGZEI | q = 1 | S = 0 | Stoichiometry = C27H30CuN4(1+) | MND = 4
Cu       -1.56627859626286    3.05258973817252   11.03141156034271
C         0.30863776067166    0.98257441937346   11.42681809200630
H         1.10049622533494    0.29164166219707   11.10908025376868
H        -0.42751952477646    0.41653849471962   12.00832636633101
C         0.91151223383415    2.08668661929763   12.30751789220988
H         1.42565108649741    1.62357025663913   13.16099447228263
H         1.65681963108650    2.62343795133041   11.71829227050459
N        -0.38296559088435    1.56072055199104   10.30648396843639
C        -0.25138905473262    1.05633578283826    9.14587349953906
H         0.38330879412907    0.17564282576577    9.00194263444583
C        -0.91548691600357    1.54134068171117    7.95367068452042
C        -0.91316241984887    0.74548944128583    6.80412570842969
H        -0.41045056451589   -0.21052901312539    6.81636806548312
C        -1.56127743223241    1.17036182796870    5.66040805861746
H        -1.55996648053057    0.54743531523597    4.77923480063868
C        -2.20891423887738    2.39652890583234    5.64172274193067
H        -2.71279819029948    2.72599833398278    4.74612616600237
C        -2.20204835856773    3.20292257847480    6.77117238253584
H        -2.69764588569266    4.16202265283440    6.75712699272777
C        -1.56043024303233    2.78028114472230    7.91699958134454
H        -1.53744149926886    3.40847191371413    8.79719313505965
N        -0.11055536182789    3.02853637920051   12.73232231114579
C         0.34512707254999    4.40551964096850   12.82476006029315
H         1.34718817330673    4.47920264964314   13.26949227224050
H        -0.34622647747505    4.95862455136657   13.46259634744819
C         0.36098550412761    5.07374264232750   11.44237253562175
H         0.69251787621703    6.11568237273770   11.54069347877030
H         1.07125151564337    4.54834067629008   10.79411000559702
N        -0.93400357071254    4.97686525402877   10.82477447768228
C        -1.41750253447351    5.97054850208613   10.19444201906712
H        -0.84496450556302    6.90067561455276   10.11691577641872
C        -2.69427772293031    5.96919980692059    9.50995376708055
C        -3.65156053263395    4.97589781134558    9.73167716855976
H        -3.44704493058392    4.20593905453589   10.46314612058678
C        -4.84572939361334    4.98683473482255    9.04085469283297
H        -5.57629084067529    4.21250422189015    9.22048403827984
C        -5.10487039457032    5.99060880498828    8.11828713008420
H        -6.03723977849124    5.99692289744324    7.57497894222297
C        -4.16958032966017    6.99100868143525    7.89998984478131
H        -4.37539811593120    7.77618362948483    7.18887968939243
C        -2.97500218705152    6.98749260088819    8.59418501180737
H        -2.24735679073424    7.76679602154671    8.42098395901385
N        -2.91673777315714    2.61837667278693   12.49424398928745
C        -2.35562247791485    3.05128544195320   13.74553103858797
H        -2.93422338584946    2.68560819565337   14.60386741977511
H        -2.38527567085994    4.14662865169746   13.75444620344541
C        -0.89897353280540    2.58173652668210   13.86856292443835
H        -0.48674396569694    2.93896659423617   14.82237768079768
H        -0.89320833833440    1.49071634528822   13.88857044943542
C        -4.10453962154826    2.16476456524269   12.45000166989423
H        -4.70279349951336    2.10778521470084   13.36534138255911
C        -4.77774933606666    1.73497434457758   11.24158255607995
C        -4.08491676604920    1.50153160689808   10.05086764409788
H        -3.00856068789193    1.60872383847890   10.04158075953480
C        -4.76135862198227    1.12431714469122    8.90917422413925
H        -4.21424694851075    0.94951451366062    7.99495890008215
C        -6.14041831522472    0.97130021828232    8.93778150083650
H        -6.67001980361904    0.68004520351562    8.04379025653965
C        -6.83817306053806    1.18444797637484   10.11716435615496
H        -7.90945864644990    1.05672745988485   10.14102109347046
C        -6.16421987145121    1.55701993945543   11.26424632303571
H        -6.71017708748195    1.72474091247403   12.18110065172431

