149
CSD_code = REHBAJ | q = 0 | S = 0 | Stoichiometry = C59H81N6O2Y | MND = 6
Y         4.78272259338276   -3.91520134204812   14.64524487704710
O         6.49414559877302   -5.86074368727482   15.03262457869008
O         3.85563521861068   -1.85618283861386   15.93861452333810
N         6.44378527074582   -2.52873291468707   14.35596520807242
N         8.98912103053455    1.21671494937381   13.32606107738529
N         3.90542176421226   -5.01788116858528   16.29867803878635
N         1.55093074944657   -8.54884192450135   16.45099948983751
N         4.51553989456236   -5.01172561568669   12.60378015900342
N         2.92877660778744   -3.57183409416318   13.28887870640711
C         6.58413453410395   -1.51874313715464   13.44799656074739
H         5.91991842769323   -1.44827504183108   12.59918776312776
C         7.63948436221771   -0.67223412356369   13.73481978844009
C         8.22617030748210   -1.18889692834738   14.93383154922348
C         7.45660148946984   -2.32986101074259   15.27750598714339
C         7.76246773650531   -3.08022017906893   16.41168772410933
H         7.17175245129728   -3.95216383125958   16.67578601556582
C         8.83104213199041   -2.67946833130971   17.18634425935403
H         9.08710041281075   -3.24251832850664   18.07315130474579
C         9.59079584171423   -1.55514207158994   16.84852954451570
H        10.41993236608414   -1.27699727817409   17.48326269715144
C         9.30087516434774   -0.80466692385146   15.72983614631942
H         9.87730967261332    0.06405072187086   15.45629801478949
C         8.02761175325429    0.47734321234339   12.97090161151569
H         7.41536154278184    0.64660326003290   12.07023322206337
C         9.42871889636945    2.38744165376615   12.61354146630667
C         8.67775137187051    2.72298876624020   11.31645396678809
H         8.76112546713899    1.90844040481524   10.59904691287096
H         9.10871405543948    3.61667523731733   10.87209228612881
H         7.62453371771436    2.91337568782603   11.51564677306950
C         9.29518726092731    3.55983792724995   13.59724852026247
H         8.24656891912005    3.74098391957388   13.82411959226923
H         9.72570945846766    4.46362564960277   13.17284846220746
H         9.80942785283492    3.32022240013933   14.52382083470360
C        10.91416934314740    2.15909252116495   12.29675735105853
H        11.44655703437955    1.90175987720147   13.20814194102095
H        11.35442170605716    3.05547588834620   11.86665040463001
H        11.02464292573060    1.33782327697689   11.59189867816574
C         3.15692011746350   -6.13954702568002   16.12286457255250
H         2.89254565618978   -6.48958624169125   15.14054369048512
C         2.79331862324826   -6.74473832152125   17.31387178481955
C         3.36948054351956   -5.93297134441722   18.34272359990453
C         4.05035350456021   -4.88365071873083   17.66601206356302
C         4.73906203235512   -3.90438894646230   18.37762585453308
H         5.26320427209501   -3.10913461052507   17.86034590532926
C         4.73900302556240   -3.97745178698126   19.75490274308691
H         5.26835244367083   -3.23050596108078   20.32979584060012
C         4.06874575754156   -5.00391263075246   20.42507513094636
H         4.09129968207799   -5.02670569420769   21.50523375133485
C         3.38596007334429   -5.98130524895999   19.73419954776893
H         2.87288996555047   -6.77160527814412   20.26338515821152
C         1.98718944545433   -7.92010858934688   17.46212040831363
H         1.78185887399616   -8.20972770288502   18.50060156486667
C         0.71481187542235   -9.72198304960042   16.52884993183255
C        -0.52751064628289   -9.41366939856455   15.67892887245271
H        -1.11330782716224   -8.62304716080802   16.14312072901113
H        -1.14985498846582  -10.29938008558237   15.57723337081144
H        -0.22117739815765   -9.08016750478439   14.69085870406528
C         1.50032411413169  -10.86922139799332   15.87477114733459
H         1.77721646621025  -10.59976302586467   14.85920020157877
H         0.89633979981804  -11.77301747770158   15.84796299174438
H         2.40935759532065  -11.06933369225704   16.43838237666592
C         0.27129284466084  -10.15251978993481   17.93443480155493
H         1.12872848000288  -10.42763257465616   18.54577946198170
H        -0.38368852293498  -11.01678272445509   17.85617593468172
H        -0.27485551455104   -9.35122257676458   18.42900460602417
C         3.34845099699932   -4.44409355076885   12.39861432307938
H         2.75943155737913   -4.66344999422920   11.49789168224822
C         5.05535571215778   -5.95004987223521   11.69745988272604
C         6.16654187133134   -5.57793848847972   10.92064380159237
C         6.73402241956074   -6.50326030725331   10.05858176221196
H         7.57624855594138   -6.21816837090665    9.44765113559636
C         6.23504045800969   -7.78923530638696    9.97022219405354
H         6.68692877566222   -8.50172277034920    9.29591631051703
C         5.16053056407303   -8.16004773851011   10.75426441354326
H         4.78764715567301   -9.17113193968784   10.69417358546031
C         4.55211427895845   -7.25839911635931   11.61658081644893
C         6.70181054116167   -4.16774967990955   11.00375350081184
H         6.40511337445694   -3.76105195106347   11.98013269773157
C         8.22552089173798   -4.08444056138860   10.90406453616726
H         8.69894184943992   -4.82034233953168   11.55010097976071
H         8.55663992024713   -3.09496847502153   11.21276185688403
H         8.56457934440051   -4.24861773165688    9.88379831135230
C         6.05728964045318   -3.31655130286156    9.90599443640010
H         6.32563268078097   -3.70153081408304    8.92382098803039
H         6.39477932407018   -2.28483364042211    9.97761639331078
H         4.97334852833211   -3.33769024937171    9.99472293853327
C         3.42993432979175   -7.72279756428894   12.51530502068844
H         2.96952120680078   -6.84184249210115   12.96959260423179
C         4.01458410696980   -8.58197927923328   13.64082359952508
H         4.40533975967284   -9.51729602865392   13.24430522758307
H         3.25419690259146   -8.80178745172301   14.38780050845306
H         4.82744486599452   -8.04464699680061   14.12479973787777
C         2.33461697208407   -8.47891702535174   11.76524085287216
H         1.94680526928741   -7.88020240137006   10.94360343434235
H         1.51695612061581   -8.70450798515009   12.44609131047487
H         2.70394273145947   -9.41820979825046   11.36152294300931
C         1.67659742685127   -2.93332672903690   13.17108948249347
C         1.64288945576994   -1.55334951414035   12.90153759728344
C         0.42000355218458   -0.90662388402911   12.82134339708835
H         0.38345052196378    0.14728731740403   12.59418104902911
C        -0.76151855326360   -1.59575801188593   13.02394245606144
H        -1.70801583837176   -1.08004524678920   12.95671850414404
C        -0.72389091514662   -2.94373234294131   13.31874835850300
H        -1.64825365914567   -3.47296318025310   13.49395248929988
C         0.47953545855187   -3.63176571452756   13.39441712500809
C         2.93767287647811   -0.81157881448609   12.66480138962908
H         3.72034534103273   -1.33350751687843   13.23530043553966
C         2.90227212689657    0.64469947687667   13.12822068855396
H         2.30767478515334    1.25872936623317   12.45544502963049
H         3.91274213806281    1.04967884323352   13.14181822369863
H         2.48339578235261    0.72258035673046   14.12896075941190
C         3.29250296303698   -0.87896146531731   11.17648141282563
H         3.38838074936134   -1.91387193545279   10.85646617681564
H         4.23162290906438   -0.36465333090637   10.98161505054481
H         2.51177909259734   -0.40751156196991   10.58214917997353
C         0.47774941737329   -5.09313680665786   13.77432173717346
H         1.50430895581577   -5.46241186954417   13.72050637017658
C         0.00679182960641   -5.26359229190092   15.22087970982605
H         0.61214218000191   -4.65100727656230   15.88705474803732
H         0.11385589484053   -6.30202242739506   15.52560518635928
H        -1.03474028473554   -4.96885414074016   15.32840336620090
C        -0.37454004006112   -5.93059175038520   12.82082254705003
H        -1.42007746454899   -5.63644584366654   12.86569744256774
H        -0.30634920790455   -6.98094531034551   13.09314712570374
H        -0.03011320203096   -5.81437954289271   11.79497130298588
C         7.67240435119515   -5.96451025588206   14.21445952514743
H         8.06239080925159   -4.95756543888732   14.03871350946366
H         7.38577252914029   -6.41787495279835   13.25626442914007
C         8.65127819940809   -6.85578401598443   14.97250094965712
H         9.32388665100699   -7.38705030172365   14.30390042087491
H         9.23963637330454   -6.26255727125295   15.67329570825620
C         7.69951009414805   -7.77936562969264   15.72692074744296
H         7.32077463793648   -8.55720249406552   15.06293083208239
H         8.15247411958578   -8.24482515066047   16.59843579143684
C         6.58366940480303   -6.81289568167359   16.10597822832950
H         5.61093455354442   -7.29609539831517   16.22687991331173
H         6.82867781334892   -6.28414709089768   17.03722318522096
C         4.54255284073092   -0.67545073807850   16.38044926218138
H         4.51499667123379    0.07593331268066   15.58063987156007
H         5.58539239299521   -0.93060068479136   16.58460902473598
C         3.78452347860142   -0.18833142778176   17.60853855189811
H         4.08259593270319   -0.75847205756883   18.48877849423025
H         3.94096415816053    0.87061310096767   17.79727783470686
C         2.34760013836084   -0.52762207643547   17.22304085506089
H         1.68832349070499   -0.62633068433146   18.08155687712137
H         1.94334533277228    0.23398962259620   16.55523453456815
C         2.52292361405088   -1.85283089745895   16.48378095001399
H         2.43520113191262   -2.70073373318783   17.17408756228833
H         1.80842105701260   -1.97831170567425   15.66406203130153

