95
CSD_code = REHCIQ | q = 0 | S = 0 | Stoichiometry = C48H40N4NiP2 | MND = 6
Ni       -2.38758177541340    9.98469133097080   15.60288082004596
P        -4.48421398853989   10.06145077542260   14.18142140947649
N        -4.28718728693848    9.88794360190892   15.79332726143956
N        -3.16477264101402   10.96619991525183   13.94430927370599
C        -2.71586206580834   11.44204372862308   12.73476418014310
C        -1.48518887712796   12.11050710747636   12.70281555489716
H        -0.92055053101207   12.17201055718935   13.62372355741496
C        -1.01868767766835   12.65535132768825   11.52647361235247
H        -0.06601920949443   13.16508828846299   11.51254099168976
C        -1.76421082730519   12.55214065350202   10.36016525836792
H        -1.39481616279255   12.97738241448308    9.43887325483063
C        -2.98402581207227   11.89616335550812   10.38242925573655
H        -3.57064461710363   11.81253577495687    9.47823710854368
C        -3.45461283252004   11.33855849017429   11.55430796526707
H        -4.40827563104621   10.82328826423546   11.58074032125168
C        -6.05043030628641   10.89820052052828   13.78279922148760
C        -5.97743204638365   12.28289425721123   13.90421271545780
H        -5.02708312998214   12.72855791538351   14.16692786683340
C        -7.09787602754995   13.06110421634952   13.68603136269714
H        -7.03623150125526   14.13571565481600   13.77378522701195
C        -8.30108809038665   12.45778640440796   13.35499431191480
H        -9.17967524394614   13.06159967003863   13.18185949224827
C        -8.38127178838625   11.07882280822611   13.25276544819713
H        -9.32234912339212   10.60931401667171   13.00528933978844
C        -7.26145002064125   10.29485266451968   13.46944851084742
H        -7.34310289473510    9.22002143468116   13.39612234245585
C        -4.30477809286839    8.49446664966604   13.24798596842684
C        -5.03001071495550    8.10429321308118   12.13054633022006
H        -5.84456290642293    8.71239649834397   11.76431630581315
C        -4.69292704381333    6.93342720785780   11.47309150262380
H        -5.25868067979003    6.62825438496435   10.60486385788313
C        -3.63162935969967    6.15971367690181   11.91301793678966
H        -3.37453767931270    5.25089281573707   11.38986040959285
C        -2.88927483662823    6.55828131355537   13.01440536121491
H        -2.04572353688936    5.97244179032353   13.34825541570683
C        -3.23021606071195    7.72180891559191   13.67241643196298
H        -2.63687648737511    8.07116449006615   14.52999853826456
C        -4.97084209168864    8.99668410604168   16.59266740811441
C        -5.98354212809907    8.16779462438767   16.10172624768535
H        -6.22315264524118    8.21266498555800   15.04686635264695
C        -6.65988093130337    7.30386206104483   16.93841121418058
H        -7.44236748010855    6.67598693089706   16.53578024457595
C        -6.33209053656375    7.22898357542241   18.28201821847593
H        -6.85604153383054    6.54472664209613   18.93237014079871
C        -5.32336211634412    8.03943555754615   18.78194883592311
H        -5.05757592986047    7.98863886022252   19.82817903837713
C        -4.65417973422293    8.91673728628643   17.95655277796322
H        -3.87144634127946    9.55098469017667   18.34742267494603
P        -0.29094574627901   10.06145246223636   17.02433921636788
N        -0.48797444786262    9.88794445547779   15.41243350213117
N        -1.61039217327566   10.96619163451393   17.26145663468784
C         1.27526947673625   10.89820593787282   17.42295934710197
C         1.20226954982490   12.28289878778793   17.30153784046474
H         0.25192106611817   12.72855950722566   17.03881579258705
C         2.32271181867892   13.06111136197839   17.51971862518526
H         2.26106735880546   14.13572211458347   17.43195662107323
C         3.52592330346115   12.45779685431913   17.85076390713960
H         4.40450968722553   13.06161202608524   18.02389619561060
C         3.60610800901614   11.07883409541016   17.95300345343320
H         4.54718454893576   10.60932821769072   18.20048826033556
C         2.48628806409039   10.29486127773274   17.73632059343038
H         2.56794031241454    9.22003068509840   17.80965665862038
C        -0.47037526892891    8.49446801335223   17.95777505657939
C         0.25485312960886    8.10430058145314   19.07521962958823
H         1.06940093613594    8.71240746682840   19.44145299827947
C        -0.08222918406584    6.93343545823530   19.73267677301276
H         0.48352367170118    6.62826653284224   20.60090624325478
C        -1.14352238723162    6.15971682689567   19.29274881043793
H        -1.40061173879948    5.25089570739406   19.81590698068053
C        -1.88587358648149    6.55827866861708   18.19135689779596
H        -2.72942188512980    5.97243559090028   17.85750592677713
C        -1.54493308430726    7.72180500111010   17.53334313913767
H        -2.13827119652847    8.07115557336695   16.67575823213983
C        -2.05929408047179   11.44204944009651   18.47100030238499
C        -3.28996355906139   12.11052052141309   18.50295151967466
H        -3.85460249648974   12.17201807407277   17.58204046549137
C        -3.75645700825603   12.65537192556527   19.67929072570546
H        -4.70913864199566   13.16508770801596   19.69322925906273
C        -3.01093188335342   12.55216396197554   20.84559597420449
H        -3.38032685884357   12.97739612927848   21.76689387400234
C        -1.79111935877965   11.89618658378446   20.82332972661031
H        -1.20449163573993   11.81255694995395   21.72751780595053
C        -1.32053635414314   11.33857522254149   19.65145411025481
H        -0.36686352429798   10.82331971357286   19.62501326038650
C         0.19568954779004    8.99669122878142   14.61309370697874
C         1.20839705620596    8.16781138161014   15.10403626766374
H         1.44800236108838    8.21268362763415   16.15889773699818
C         1.88474712661943    7.30388742534789   14.26735204603551
H         2.66723521867571    6.67601545165567   14.66998571415190
C         1.55696086635953    7.22900692893229   12.92374424356706
H         2.08091701252194    6.54475157149293   12.27339454846543
C         0.54822504432797    8.03944819363331   12.42381218345098
H         0.28244505705348    7.98865385411249   11.37758007944931
C        -0.12096873392638    8.91674169357985   13.24920742222193
H        -0.90370641304103    9.55098215007538   12.85833481505510

