60
CSD_code = REHKAR | q = 0 | S = 0 | Stoichiometry = C28H27NO2PRh | MND = 4
Rh        0.53925423770298    3.76932978041418    5.63033424655807
P         2.06448270372816    2.17717485719596    5.16522132414736
N        -0.85377709997965    5.22565578230168    5.83104562911593
O         0.16539423507213    3.99171647692437    3.71717136950692
O         1.14526794953727    3.51382509024690    8.53424256077208
C        -1.34960357247005    5.82964521614103    6.89536868161301
H        -0.97954798871259    5.52145555419861    7.86404713824540
C        -2.31979717683531    6.83583212489531    6.80610357704878
H        -2.68567159799259    7.29210568315132    7.71298442161156
C        -2.78761114771513    7.22491140838536    5.57847770560173
H        -3.53604020753066    7.99875590180516    5.48408088352846
C        -2.28263140991201    6.60374221663750    4.41860286303215
C        -2.68463894202085    6.91592394270384    3.11010128907184
H        -3.42998358966338    7.68112257408324    2.95612008211790
C        -2.12641320071898    6.24518115834509    2.04644786925034
H        -2.44197518397691    6.49016396540099    1.04194709660793
C        -1.16414942081072    5.25609439612518    2.21970090561596
H        -0.74375895673751    4.74657253953248    1.36572507078328
C        -0.72269415067421    4.90315646156536    3.49598650963696
C        -1.30101912307104    5.59520770946936    4.60834512348334
C         0.89378971687386    3.61516126244547    7.41267667315213
C         2.05761950912688    1.46590533401700    3.44944861912005
H         2.16594916862013    2.32832878733002    2.78026830811112
C         0.68554778810373    0.84241218711041    3.19473643320219
H         0.53896103204083   -0.00769390041095    3.86733679577981
H        -0.09111380504084    1.58286413867219    3.40377757952805
C         0.58562200760311    0.36825486894914    1.74827612380638
H        -0.39002364695302   -0.08994209801362    1.57349738770618
H         0.67613933734730    1.22717584913950    1.07990518816853
C         1.69391765699400   -0.63461936776036    1.44001705523917
H         1.63195484462636   -0.95116636750075    0.39670789542211
H         1.56370112826256   -1.52029622160418    2.06655559630277
C         3.06329507527776   -0.02046059709226    1.71637241389493
H         3.21991633920384    0.83096649515212    1.04981955097689
H         3.84801058388491   -0.75253975664516    1.51281270101926
C         3.15665051259972    0.44575903013091    3.16842808102578
H         4.14333472702177    0.87438328595832    3.35925156690731
H         3.02836699108565   -0.41672049589275    3.82683080053491
C         1.92324966974129    0.67412698599561    6.18671969346883
C         2.97557689148417   -0.19453157808245    6.45365788921249
H         3.96716232260582    0.02827599012468    6.08581775383096
C         2.75665495517588   -1.33495969510639    7.20660619680511
H         3.57794055990261   -2.00482963619766    7.41667907018283
C         1.49072395448531   -1.61976398423261    7.69210753070302
H         1.32689203703067   -2.51020629928649    8.28096708924387
C         0.43704051664552   -0.75921182926439    7.42788348177190
H        -0.54941084068184   -0.97852425993253    7.80933533947477
C         0.65453809108331    0.38233406714895    6.67928888523000
H        -0.15504608015603    1.07831813114632    6.46802326160711
C         3.78058331162712    2.72127463836742    5.43512392449800
C         4.51494110920651    3.32062922428025    4.41597623427315
H         4.08865555577047    3.41021881984652    3.42741472969146
C         5.78338183761783    3.81285269846453    4.66622906366847
H         6.35024818447570    4.26924250513892    3.86778971790128
C         6.32459736488165    3.72843170867272    5.93830022250581
H         7.31638876120829    4.11074765271482    6.13071702242869
C         5.58581557712373    3.16457290873810    6.96592012274833
H         5.99762676333735    3.11453240428474    7.96319254141879
C         4.31805684929511    2.67197895815795    6.71936092298825
H         3.73445728438202    2.24484531560144    7.52311618918025

