63
CSD_code = REHLIC | q = 0 | S = 0 | Stoichiometry = C29H26NO5PW | MND = 6
W         1.37349099550914   26.17346946913131    5.23761310874444
P         0.58918651066888   27.01600303046181    3.03983419758166
H         1.28390763946423   26.56545259618541    1.91295898254181
O         2.37232234897625   24.90229149770866    7.91267145696580
O         0.26869411782377   23.31544583416687    4.57972424608784
O        -1.25914482746827   26.87294563965274    6.79462767913487
O         2.63028755535133   28.78162279800935    6.43878268561233
N        -0.92185444671675   26.47419783189121    2.49195689552267
C        -2.00756454400645   26.50495681604245    3.46258358370471
H        -1.92498386872132   27.41146433461870    4.06316464771936
H        -1.95514251126200   25.63264695723049    4.13521114975390
C        -3.34113677348054   26.49334440003226    2.72133883410050
H        -4.15763652211521   26.54548442989335    3.44246670852505
H        -3.39260706728775   27.37549148372524    2.08031325923046
C        -3.45033563035876   25.22856739294197    1.87521138554611
H        -4.37392721044982   25.23790709584679    1.29453558908937
H        -3.47255841090068   24.35448218681244    2.53028211575335
C        -2.24376757952754   25.13574727262188    0.94597727231572
H        -2.26340679071460   24.19982910208772    0.38530561973974
H        -2.27185213546507   25.96266793041218    0.23357751589434
C        -0.95222009699549   25.21066900037913    1.75828757598837
H        -0.91109952754831   24.35120980593943    2.44136332609198
H        -0.08384161285853   25.15917447298762    1.09406467181220
C         0.64306285587656   28.86538025814123    2.59492049167608
C         1.89242239992927   29.39209351489837    3.27396980449020
C         3.07442646937015   28.66835520470609    3.14007984680243
H         3.07509200212578   27.75345170490213    2.55938512548079
C         4.25864567043052   29.13050082700833    3.68586316952992
H         5.16290712657007   28.55074443852837    3.57406111993413
C         4.28040182395158   30.33215789201417    4.37234071595398
H         5.19980033843295   30.69256446806988    4.80822843923627
C         3.11778598973522   31.07501246104041    4.48589444847120
H         3.13033479344917   32.02299024053848    5.00298653728712
C         1.93392179598832   30.61348127563742    3.93716264039079
H         1.03942876475258   31.21376725248755    4.01966385579691
C         0.77893034921299   29.10401167867726    1.10065510012952
C         0.15086906473917   28.28354853790964    0.17090354908069
H        -0.45728175599527   27.46435116519601    0.51589144369234
C         0.27408784550133   28.51904787440816   -1.18693707178252
H        -0.22056147297587   27.86392999361432   -1.88973739502620
C         1.02244748702261   29.58944776459227   -1.64397453132684
H         1.12160920992462   29.77389970886787   -2.70323447173878
C         1.63517628755299   30.42608927420236   -0.72792428029678
H         2.21305649300960   31.27235497497734   -1.06925285707765
C         1.51400209051278   30.18813748783777    0.62989318101018
H         1.99714892927212   30.85748492275806    1.32543905994543
C        -0.62744105899678   29.45226570150177    3.16393432501124
C        -1.66395680633190   29.90672436967398    2.35850601781162
H        -1.56181771210617   29.88330014170742    1.28411753019797
C        -2.82948261522876   30.39951865530682    2.92166833854848
H        -3.62409249851100   30.74988790782718    2.27914094157349
C        -2.97978967368219   30.44658436228508    4.29597217747858
H        -3.88940635041351   30.83131195583145    4.73193393620136
C        -1.95211647910745   29.99829916071909    5.10963876674237
H        -2.05621010667131   30.02749511839111    6.18413451099629
C        -0.78934571707354   29.50347020444145    4.54863260166106
H         0.01062771530083   29.15881961211117    5.19137716347451
C         2.00746893430736   25.37788297318774    6.93915282359649
C         0.64531504208231   24.38246677801042    4.75093246699887
C        -0.32921880589691   26.63917080735379    6.17220054354171
C         2.16097598793084   27.89095492517771    5.90061575435937
C         3.10831095513045   25.68623185227575    4.37345709037610
O         4.10935501896923   25.38584117438711    3.91395458231188

