56
CSD_code = REHMAV | q = 0 | S = 0 | Stoichiometry = C26H22NO5PW | MND = 6
W         5.60113262685928    9.66983202904521   11.76780431546669
P         6.17649337012172    7.25891204360271   11.79927214618657
H         5.26059097109974    6.41331823851750   11.15607914570272
O         4.64221415196591   12.64457170177652   11.71918626094223
O         3.44826064981163    8.99542671465654   13.94986432382963
O         7.60861966877638   10.67478513377124   13.95716208914943
O         7.70650756103719   10.49062611729219    9.58643826212451
O         3.39701064924647    9.01243450026156    9.62997508509335
N         5.98502796018939    6.52586276124291   13.28330519334236
H         6.05863709068124    5.51013619160922   13.27506483262621
C         6.35607833233917    7.08456456548406   14.57159144878314
H         5.52323672592677    6.91436678692905   15.26493394950572
H         6.47519284572062    8.16569133890365   14.45271919145636
C         7.62117845530723    6.46511313380404   15.15551417563563
H         8.47376995330757    6.61670278008481   14.49747622442714
H         7.48916194032143    5.39315019817388   15.29315746270151
H         7.84122466156289    6.91345259657580   16.12068703681314
C         7.70211182493367    6.52552395616061   10.87566565063087
C         8.14156164212341    5.31111098916612   11.65602815506634
C         7.25591400684059    4.23836490010670   11.77168271970127
H         6.30218563413434    4.28358095343158   11.26041494217397
C         7.59507315761586    3.11034116283959   12.49532964705003
H         6.89537264667813    2.29066945548280   12.57048587726192
C         8.82902800338049    3.03226657335477   13.12019266073393
H         9.09583201903787    2.15382427691539   13.68814487380716
C         9.71997810711129    4.08389967010393   13.00126870614850
H        10.68944471011137    4.02682740710192   13.47366663070259
C         9.38100779758789    5.21440296575996   12.27601547118149
H        10.09475821875177    6.01948499721603   12.18352734424575
C         7.25634704469611    6.15265555290479    9.47887682399285
C         7.71795262570041    5.00715340218356    8.83994707802049
H         8.40120799335283    4.34261618420632    9.34863336551150
C         7.31647577410417    4.71445996157660    7.54795493202790
H         7.68381916634251    3.82006875569639    7.06641366882073
C         6.45500892296540    5.56176776801669    6.87302347068394
H         6.14169444335065    5.32895447988701    5.86640335295761
C         6.00662735765370    6.71542808317061    7.49378288930862
H         5.34404995377807    7.39128037164128    6.97401739635695
C         6.40996252407562    7.00803254859628    8.78323254066257
H         6.07827088501260    7.92506203728070    9.25636664063058
C         8.75665989910377    7.60487424486315   10.82496619017317
C         9.00643849774153    8.35305413008564   11.97132548816579
H         8.46474792565632    8.11726665301100   12.87929917480532
C         9.95859527306686    9.35563898710431   11.97544476765878
H        10.13828377862158    9.92411953388204   12.87611623527157
C        10.67403835393144    9.62984627659128   10.82219308873349
H        11.41027939415764   10.41939530891886   10.81583401341192
C        10.44217097429217    8.88410863289045    9.67975052368281
H        11.00086139189532    9.08876393538360    8.77863916768091
C         9.49407786286464    7.87529344993642    9.67941667235855
H         9.32613503063952    7.30176395684692    8.78007895132642
C         5.00051734725602   11.55931694500322   11.73441620156233
C         4.23700511414752    9.23251693190774   13.15917284575141
C         6.90828218156621   10.23759436411649   13.16589770662572
C         6.96253682815483   10.13848225659674   10.37684120179250
C         4.22624807328885    9.22364110834451   10.38580178954197

