60
CSD_code = REHMEZ | q = 0 | S = 0 | Stoichiometry = C28H24NO5PW | MND = 6
W        10.82869672906866    6.83984303329044    8.39275792982954
P        10.99238770175948    4.38455287385606    8.75722215748010
H        11.81003952157690    3.69987081456509    7.85052017801098
O        10.63797723434709    9.88616757294430    7.72041978106573
O         9.07943058943171    6.37511518657187    5.83293039885702
O         8.19684804377773    7.35493176489076   10.02024707507559
O        12.38174631217077    7.73510198576408   10.96997588769336
O        13.44474816337212    6.71690507114902    6.66073069458211
N         9.64853514812092    3.42656240532283    8.41329046095347
C         8.35041438776934    3.79939440569159    8.97217181274794
H         8.16336140813537    4.88021383835597    8.87563512272536
H         8.30525137980149    3.53138337636857   10.02909709297759
C         7.35589481829432    3.02297231374465    8.11962352000734
H         7.34072239690049    1.97581951444321    8.42415035417262
H         6.34800947258474    3.42630655599536    8.18657466708498
C         7.96246579623272    3.15952074702880    6.72610028970843
H         7.62102379462737    2.38865733282735    6.03857356524880
H         7.71291056315976    4.13460455460903    6.30676508060793
C         9.46427778058159    3.06535550589554    6.99387878068897
H         9.82864638736790    2.04098808322434    6.85937388015285
H        10.03265661356748    3.72036337046366    6.32475657345540
C        11.74904313879675    3.55953354157918   10.29986041099079
C        10.71607825625016    3.51234713530327   11.40290458669277
C         9.99274871794983    4.66619975628131   11.68968511980197
H        10.18015478391971    5.56173057455251   11.11022322143751
C         9.06054570334040    4.69017065233375   12.70973141285996
H         8.50584410752507    5.59540476589697   12.90703921945971
C         8.84475603345965    3.55668969178565   13.47611795005612
H         8.11650173294427    3.56918740727716   14.27306658019735
C         9.58205961534031    2.41349399611103   13.22247723489309
H         9.43741876727185    1.53142557694871   13.82896610801457
C        10.51482228829813    2.39074037428127   12.19891467196424
H        11.09486946410630    1.49591424980293   12.03025292203403
C        12.21016546811687    2.18662544544053    9.85647254059218
C        11.26533101342629    1.21800244013889    9.51860226540093
H        10.21548691468894    1.44249447112614    9.61671300036894
C        11.65690022930252   -0.03130879130283    9.07472570771737
H        10.90692572064930   -0.76487691249926    8.81596589647734
C        13.00077105584805   -0.34655795779493    8.96818115293479
H        13.30717105703529   -1.32227297772500    8.62166530161835
C        13.94667647933476    0.59851711686165    9.32184736819274
H        14.99875392464878    0.36217127582656    9.25862240371777
C        13.55675514522783    1.85201325559837    9.76186479550513
H        14.31507084549090    2.56728189379178   10.04203640077618
C        12.89923675838613    4.45919740435391   10.70364335429354
C        13.16493651220587    4.76408947928169   12.03313701845194
H        12.54393322973000    4.35390614144626   12.81554845901121
C        14.22295213753398    5.59156124583155   12.36789822204085
H        14.40946664144509    5.82189328797132   13.40624519355676
C        15.03696526968084    6.12388871369711   11.38343619161891
H        15.85617300710047    6.77518120603171   11.64798174033048
C        14.79689494009894    5.80996059701975   10.05688723941675
H        15.43209487892792    6.20780560597075    9.27908327768360
C        13.73625522958361    4.98713981351688    9.72223564963627
H        13.58494714184812    4.71070236392050    8.68575914826133
C        10.71316542753436    8.77481063172265    7.97684203059777
C         9.73877145236188    6.48219776474396    6.76208194587822
C         9.14561490221606    7.07868527539838    9.44317185680286
C        11.86313632776477    7.32927221640734   10.03823470695211
C        12.50506143795871    6.72825096401478    7.30908239063506

