50
CSD_code = REHMUP | q = 0 | S = 0 | Stoichiometry = C24H18NO5PW | MND = 6
W         0.80477801728576    6.42963811647253   10.89796199775850
P         0.09916360845183    5.97803703420634   13.21729993949547
H        -0.07295476236032    4.64071080480641   13.59876105773539
O         1.50776134027462    6.91646334904285    7.89055073669162
O         1.97304718078958    3.52919933198073   10.60575799119252
O         3.63866319936107    7.60164986649671   11.57480087561173
O        -0.47642898039998    9.29185635385582   10.90221018209833
O        -1.98049348188308    5.24463599747196   10.06812161416440
N        -1.49479629699844    6.42100453750731   13.43188118615708
H        -1.86768389193711    6.36425412818906   14.37742379224846
H        -1.76904569438555    7.27851212458947   12.96798432953982
C         1.09219366371495    6.46624957165492   14.77947399951810
C         1.87397609857080    7.70685269332932   14.41560669289622
C         1.21000796539352    8.75325780742187   13.78067473578063
H         0.14150569721049    8.67907779308221   13.61646050448444
C         1.88301028365730    9.90217129686910   13.40876556786391
H         1.35012021327329   10.70106780606201   12.91441422016830
C         3.23774609336937   10.02196507106175   13.66902805567034
H         3.77007430622726   10.91274563859541   13.37162119588259
C         3.90325713579947    8.99577463176208   14.31606782818560
H         4.95788559969661    9.08586433032625   14.52933615085891
C         3.22809594753176    7.84589292042183   14.68916454660329
H         3.76178885033521    7.05281095180984   15.19129642694544
C         2.01595707443673    5.31296133121545   15.10564067251281
C         2.66588169961768    4.64968493186960   14.07133490831964
H         2.50123268603670    4.97250821352742   13.04977980879192
C         3.53291122689083    3.60508733459721   14.33171465975517
H         4.02322553187451    3.09972847682090   13.51307713375531
C         3.77095637135810    3.21252954811895   15.63831081478048
H         4.44582359410423    2.39581474586663   15.84612429683199
C         3.14507915112047    3.88005798242215   16.67667811798750
H         3.33498323319829    3.58948707906615   17.69953572003983
C         2.27557676144885    4.92515585202248   16.41506498404572
H         1.80326700892277    5.44362190639984   17.23679001663238
C         0.10290554690918    6.70518821853575   15.89586697841637
C        -0.00916025874017    7.92065964540285   16.56010842489660
H         0.63944263445976    8.74214465074077   16.29597334052580
C        -0.93652706984870    8.08494185660857   17.57585329480741
H        -1.00449800838953    9.03561671987582   18.08348947609816
C        -1.76720582382942    7.04168860494930   17.94476675067985
H        -2.48917889128953    7.17415749066138   18.73620246220129
C        -1.65875303091755    5.82199303023747   17.29687065314730
H        -2.29438727617021    4.99672541864886   17.58191195841338
C        -0.73310342595871    5.65677489009279   16.28324811025907
H        -0.63532369355711    4.69487812580492   15.79629562788545
C         1.26073366830505    6.74046629122840    8.99205200972877
C         1.56702051279286    4.58584900714325   10.75197146732480
C         2.59581108604513    7.17957075034260   11.38499119135027
C         0.00684732823547    8.25643625980464   10.94715199411354
C        -0.97188973012853    5.67587948104828   10.38183149918341

