62
CSD_code = REHNIE | q = 0 | S = 0 | Stoichiometry = C28H26NO5PW | MND = 6
C         1.75317300793808   -3.10256121260155   18.09275944775515
H         1.41806109452279   -3.57887812375035   17.16675848013053
H         0.87030482683572   -2.70804016386691   18.60282234458192
C         2.43666126514538   -4.14277740421813   18.97423682842162
H         3.32915108199629   -4.52292250264915   18.47514721872138
H         1.76091010767126   -4.97364558960251   19.16094158061817
H         2.72988895672704   -3.71771311168329   19.93079532054696
C         2.75017624050802   -0.95064993518613   18.75944776377303
H         3.69287506570512   -0.42305010277934   18.58609138770617
H         2.79578207752411   -1.40494612954833   19.75640539709075
C         1.60837961463939    0.06111529959241   18.71304527846965
H         1.58060572235435    0.55529003844052   17.74528846246017
H         1.75600375108313    0.81502696258323   19.48168227993735
H         0.65003452948557   -0.42306900096946   18.88690244516669
C         3.39186540644045   -1.32065780555973   15.06374477460079
C         4.58092530648518   -1.45856964674316   14.13815400779444
C         5.24979542190272   -2.67851150138978   14.04697261150715
H         4.89287113323926   -3.52922831833963   14.61397337266378
C         6.32746464082585   -2.83896224430590   13.19394144111740
H         6.82911058819846   -3.79406733470599   13.13947164180144
C         6.76100587616740   -1.77731982150427   12.41914682814990
H         7.60795558390026   -1.89541605885079   11.76038495725359
C         6.09678385953009   -0.56515282417113   12.49144108779817
H         6.42172826537921    0.26590124388698   11.88333968140126
C         5.01472605893380   -0.40662019614997   13.33967584726424
H         4.50473003127535    0.54450997443776   13.37712327420732
C         2.16475103888506   -2.03382338446194   14.53792313807906
C         2.19640832045420   -2.82605221385090   13.39470797755225
H         3.10908234360667   -2.92456814128280   12.82718623039732
C         1.06144367239630   -3.48697430324088   12.95683586401417
H         1.11254137409249   -4.09410224416000   12.06494852959334
C        -0.13048555045220   -3.37005703122647   13.64888687939062
H        -1.01394315215488   -3.88784178934914   13.30655001445645
C        -0.17983603562918   -2.57227316080971   14.77918130745682
H        -1.10625514253090   -2.46084424667771   15.32391035167851
C         0.95215665432782   -1.90917298514981   15.21609063003962
H         0.89252118841244   -1.27646664711511   16.08719582165921
C         3.13971427469118    0.13630249607416   15.38052702129729
C         2.04947762398619    0.84301408727492   14.88415357530606
H         1.33234930708771    0.35390459209709   14.24211884964292
C         1.87876256675285    2.18244783858937   15.19210578680240
H         1.02329626187387    2.71251216701137   14.79948592649646
C         2.79631536305610    2.84286001302374   15.99049241041146
H         2.65495827327270    3.88490050510024   16.23483449938326
C         3.90818709290127    2.16032622479252   16.45450884335441
H         4.64731174375039    2.66802239463177   17.05627746857004
C         4.07921142536521    0.82485465851358   16.14175816805237
H         4.97344688812647    0.30795548373231   16.46571520928045
C         8.08401405014591   -2.36656342418342   18.26236150720381
C         6.44577847640768   -4.03502597370993   16.72226448171808
C         7.03183208725814   -1.31280966733707   15.95933442362198
C         6.14443853549007   -0.45658583012571   18.47079760876757
C         5.61213809555038   -3.04851535366783   19.26273994650334
N         2.60717271631707   -1.97555604337415   17.73616109807200
O         9.14471764281887   -2.45496942384034   18.67955470365527
O         6.60676025791707   -5.08213203454135   16.29558570034288
O         7.62614850514864   -0.73125666080883   15.17760532386514
O         6.21473616631911    0.52685394886110   19.05174193877306
O         5.37226746909618   -3.45501095215498   20.30399321850268
P         3.89173499586740   -2.22959046967561   16.68255063315281
H         3.43524661700302   -3.47469973280125   16.24569462130552
W         6.23862933796347   -2.22964718654342   17.55632653066025

