47
CSD_code = REHQAZ | q = 0 | S = 0 | Stoichiometry = C15H22BrMoN3O4S | MND = 6
Mo        6.38851257709286    2.54070506990469   10.07130731155221
Br       -0.87816122097299    3.78603456684045   11.20498078269295
S         8.61782578485508    6.35987088735720    8.90596471799461
O         5.93212117655377    2.90906898985735    7.34877156374875
O         4.65174102987335    1.94812874725399    9.79395603514841
N         5.39989353991392    4.42610423551532    9.66415929120542
N         6.20823370480489    5.45997847160637    9.35864387077531
N         7.83549522083230    3.84887819215193    9.55042795505035
O         7.18319719641816    1.24327599158489    9.45036812756308
O         6.51428770705658    2.73495761892181   11.70269950089383
C         7.47096215682254    5.09402250938370    9.30509263323402
C         3.14919945340939    3.74641166771059   10.16932605480896
C         3.45173221870592    2.35904099302732   10.12572752786212
C         4.15355101681266    4.71934319308261    9.87340986934317
H         3.86323358484165    5.76938275588867    9.82530836358563
C         1.84773818929774    4.15290592944407   10.49000084351932
H         1.61232905071730    5.20634553800140   10.52342691322860
C         7.51282536315553    7.79714805876726    8.85356402351691
H         6.77050677316501    7.65053840609355    8.07726844703829
H         8.14062227132229    8.65427192600724    8.63267971742390
H         7.03307593421063    7.90798963719622    9.81936863617001
C         0.88192753890495    3.21344785372100   10.77071738244059
C         1.16585744786212    1.85185277275072   10.73794369145931
H         0.39331911220284    1.13330725665028   10.96473934160548
C         5.85709031538732    1.64081210580525    6.71189194832532
H         6.39050437945408    1.65814064780007    5.75667126539946
H         4.81658967031339    1.34425970045846    6.54837303446703
H         6.33498825247206    0.93646054537447    7.39323992957782
C         9.23240553954144    3.47187567391646    9.44203672601027
H         9.43811240503340    2.74596621178620   10.23893725627570
H         9.86852346398774    4.35790453421858    9.58196446368422
C         2.43734701893199    1.43332201763511   10.41247338208210
H         2.68563491664115    0.38230226530718   10.38092005154642
C         9.49969575842982    2.82931280418261    8.08111330862776
H         8.82347543705524    1.97573750520785    7.99801895049452
H         9.26070482081773    3.55137384416052    7.29493878526372
C        10.94976269569675    2.37571000860746    7.94035481950490
H        11.60636566929050    3.23549536109714    8.09733995966509
H        11.17113450084624    1.63920970875808    8.71478586655490
C        11.24804538745038    1.76950472333861    6.56832837454416
H        12.32593858225729    1.61270615794342    6.48404401728647
H        10.95701157878275    2.47906781523474    5.79012406018192
C        10.53769129830151    0.44053892744002    6.33873450299047
H        10.80350414556067   -0.26952874189529    7.11833785476754
H        10.82564716493513    0.01960344765239    5.37768321940015
H         9.45848205367661    0.56675111596359    6.34696720821147
H         5.49231811725958    3.55816235127956    6.78436841327786

