27
CSD_code = REHXEH | q = 0 | S = 0 | Stoichiometry = C6H13Cl2O3ReS2 | MND = 6
Re        0.27757332277679    1.32288037061435   17.28206552057770
Cl        0.84140984481941   -0.19541565979429   18.87995461946212
Cl        0.02942715608890   -0.34058093079000   15.75922527130451
S        -0.45898716798108    3.30580816659517   15.46546816498492
S         0.05434412189433    3.58842803620244   18.96991531713876
O        -1.43719069146629    1.40606554724974   17.76080161818247
O         1.79984337917502    1.81510458048011   16.87053189739471
C         0.49613012599470    4.58881938639580   16.37751858805266
H         1.49972916034472    4.19054089381947   16.53420622699005
H         0.54020355126248    5.47278919033849   15.74142483123503
C        -0.15935716648507    4.91744202561307   17.70390872762006
H        -1.22593854667881    5.10064716054127   17.58664957003099
H         0.31467113163051    5.80061602354114   18.13258566502781
C        -1.66678294245923    3.13860616674824   19.36809955568201
H        -1.57113865511565    2.52512096287215   20.26469895299333
H        -2.23117122049538    4.04106644110027   19.59248364656569
C        -2.32646523963139    2.31791176888208   18.23968354423369
H        -3.22709616922535    1.82245187877845   18.63377449183178
H        -2.63289369262750    2.99114193416842   17.41770270687235
C         0.73033324695626    2.82481289382982   14.17083349992038
H         1.64294601248486    2.49755399142797   14.67473240255532
H         0.26830079243170    1.96653730686063   13.68476162386686
C         1.00047708606284    3.93896563915475   13.16492979454519
H         1.45376798028951    3.49187548457113   12.26906185365790
H         0.06326253211843    4.42047354030168   12.87431297611340
O         1.81368751805451    4.96492539841756   13.67362614745104
H         2.68541452978081    4.60531180207900   13.87644278570956

