65
CSD_code = REJCIU | q = 0 | S = 0 | Stoichiometry = C32H27IrN4O | MND = 6
Ir        5.19166151589078   10.11317092349308   10.58509649491510
O         6.23334157502699   12.18854974682258   10.03526185638198
N         6.85158081202687    9.31379512792559   11.31149202284416
N         3.47475045371254   10.89641427785136    9.88119708830135
N         5.96650672109886    9.56122650470657    8.66528903365664
N         6.78011151737797   10.50894323172904    8.18390459049261
H         6.59857023419596   11.71897601154581    9.21238334161733
C         8.02124093712468    9.94816366236371   11.32845177407417
H         8.00871931987597   10.98493171448525   11.02292057871880
C         9.19811024331499    9.33785516091014   11.71572430106371
H        10.12304387907291    9.89154690562153   11.70726837331286
C         9.16130174395240    8.00570387006735   12.10683075311892
H        10.06299097109526    7.49511601561863   12.40940481898216
C         7.94785451983528    7.34567768936072   12.10208354389983
H         7.88982070313630    6.31160125171861   12.40091956933420
C         6.79477829481110    8.01731822967702   11.70053800920799
C         5.45600467510548    7.45130261094280   11.64502623036167
C         5.12749398164119    6.15617517829990   12.04312700048949
H         5.88905748147686    5.48980413213241   12.42064209015190
C         3.82198800976452    5.71823023913434   11.95793500964782
H         3.56598231184045    4.71493688201460   12.26480280550541
C         2.83836323582747    6.57176665861955   11.48088893186685
H         1.81504254199574    6.22958417182298   11.41994892650022
C         3.15805548846429    7.85887543611133   11.08225317931473
H         2.36873782463354    8.50145748057956   10.71622604312626
C         4.46610972164341    8.32637633607591   11.14608269689636
C         3.07220625054986   10.82679230121157    8.61233536152156
H         3.71338467062760   10.28082480468555    7.93434783381517
C         1.90567752497559   11.40898327355965    8.15674592614015
H         1.62713111764084   11.32190297382148    7.11908820302151
C         1.11050751162402   12.09954679991350    9.06226561679693
H         0.19058896795898   12.56640036070187    8.74418435241517
C         1.51854699811247   12.17489009392540   10.37880046145924
H         0.91856732396233   12.70249385545225   11.10201907256291
C         2.70804087577382   11.56460263454336   10.77930141027697
C         3.23554666792009   11.56606358185515   12.13513709735913
C         2.62169023835521   12.21415875962346   13.20781279818348
H         1.70324156927956   12.76568099529194   13.06763427283783
C         3.19106646139259   12.15753458624626   14.46244326878828
H         2.71846687654237   12.65853935514360   15.29481279963571
C         4.37168443500618   11.45423991905096   14.65121347877549
H         4.81578080973509   11.40795028586751   15.63587182548125
C         4.98230626546415   10.81250744455648   13.58714242546296
H         5.90045136256565   10.26935645222744   13.76580865638595
C         4.44046463571022   10.85137880409581   12.30738659681471
C         5.17263005457604    7.27543885515184    8.07740021297943
H         5.67955513794272    6.62827251801446    8.79416678916600
H         5.04342907103286    6.72604838855023    7.14719159976095
H         4.19683361693555    7.52328583592251    8.49052061969297
C         5.96974113619328    8.50856066410204    7.83023642532636
C         6.81004809069228    8.79402738890937    6.76454500478430
H         7.03251942070828    8.15564529794401    5.93270604268691
C         7.30918202343925   10.07760755333758    7.03114859267888
C         8.23428913604572   10.89174810999870    6.26601124207413
C         8.59314898394930   10.54142103051539    4.96431382233274
H         8.17263566542110    9.65364267732369    4.51527108287357
C         9.47467467020509   11.32224556596519    4.24248166494184
H         9.74226904849371   11.03727718891751    3.23430801260740
C        10.01463253131479   12.46834595108188    4.80218270406489
H        10.70363182978148   13.07773725694424    4.23520861988848
C         9.66568958229387   12.82708692853020    6.09421382681348
H        10.08503076398947   13.71964465935852    6.53767280791506
C         8.78626318112522   12.04834194439455    6.81960574116699
H         8.52031143560302   12.32328615085367    7.82944002726782
H         5.65161534311215   12.88178930277930    9.71992463946012

