119
CSD_code = REJCOA | q = 0 | S = 0 | Stoichiometry = C56H50N6O6Zn | MND = 6
Zn        9.61803540743941   -0.00030996024328    0.00010640111238
O         1.17677109015002   -1.62922759806086    4.67979765724939
O         2.44052406343954   -2.47824685265441    6.32541378614516
O         8.35093380163434    1.72494477451063   -0.95491530167483
N         8.96944856720245    0.56780557788376    1.84591223880760
N        11.17914709428963    1.29041788387085    0.15444524426118
N        11.03255802414630    3.26795737318712    3.25247119615908
C        11.43990552113265    2.12716626207157    1.18700494882078
C        10.63888359557209    2.30118227018752    2.32240557473160
C         9.49405012190079    1.54978782553112    2.61854231158454
C         8.67021218144385    1.75621803877494    3.77677766275184
H         8.82607067093498    2.48299124059575    4.55185735031294
C         7.63830702099898    0.88367267168552    3.67942134079326
H         6.81266710703954    0.76572400197138    4.35398653702041
C         7.83652000731363    0.14817540741228    2.46217045897006
C         6.92449032212542   -0.78413145074753    1.96000491297809
C        12.19927585714126    1.43142474626759   -0.72924120494041
C        13.14779606585501    2.39214978619602   -0.23391902499704
H        14.04316013131865    2.70158916505309   -0.73693443369965
C        12.67891964338799    2.81970826410769    0.96130635811237
H        13.13128526250552    3.52555427453533    1.62976072164855
C        11.19602979088881    4.61852970811737    3.00026329293828
C        11.66052343242634    5.44167182067501    4.02803103191976
H        11.87966821599224    5.00833450138525    4.99424045531179
C        11.84223990057408    6.79371456344364    3.81638174620816
H        12.20710538074566    7.41459406999738    4.62156415516028
C        11.55985422913498    7.35370973032437    2.58140211061005
H        11.70539535764557    8.41023483862701    2.41628274828600
C        11.08079303632504    6.54571077509034    1.56301074197806
H        10.84317995138642    6.97569800639523    0.60070583508823
C        10.89374746328664    5.19295715254377    1.76467456850530
H        10.50966993845612    4.57278370977650    0.96894087284460
C         5.74030071422956   -1.08600306407070    2.78954151165670
C         4.45794818742664   -0.77245836749539    2.34093183766049
H         4.33939736697504   -0.29865981229477    1.37720400215610
C         3.35080945676507   -1.04807183099305    3.11713801881112
H         2.36115561454034   -0.79855179098216    2.76780609483906
C         3.50679037664060   -1.65044258583939    4.36382423237840
C         4.78647716256291   -1.96722217512568    4.81724395186322
H         4.88962515175529   -2.43586182297825    5.78441468505087
C         5.88972974076744   -1.68543862736086    4.03950209066759
H         6.88091261274655   -1.93623250207675    4.38819674844794
C         2.35428627841469   -1.96881920781863    5.23365673344713
C         0.02683417738529   -1.90853819352571    5.46105035060310
H        -0.82718099057219   -1.57573037824776    4.87654987481479
H         0.07384592556716   -1.37311014325002    6.41187297330269
H        -0.04215660056531   -2.97901015742961    5.66668761600764
C         8.93271453295996    2.58237370164666   -1.91985115568246
H         9.22223862479669    1.96378186832206   -2.76935751106943
H         9.83386538578722    3.05434241022933   -1.50744134902057
C         7.87125580575163    3.64618727365197   -2.26439871894990
H         8.29212246728998    4.64710026826536   -2.18337597440369
H         7.49174827318860    3.51734724746204   -3.27596948930035
C         6.77026633737236    3.41420139705547   -1.21921997805318
H         5.93019666556912    2.87953501934154   -1.66120694756747
H         6.40504014721022    4.33881229446600   -0.77861436507938
C         7.46975145440750    2.52170652507408   -0.19167896967763
H         8.03147946361818    3.13005683661066    0.53195514545418
H         6.79827311729210    1.85557788223850    0.34828479024276
H        10.86784915003146    3.03517953276897    4.22041692443380
O        18.05766624454046    1.63196823110481   -4.68173123465123
O        16.79295783476444    2.48058190520998   -6.32681323982736
O        10.88509877679832   -1.72552654408874    0.95511647755932
N        10.26659041106956   -0.56841854888660   -1.84570632117235
N         8.05694160938175   -1.29104215644114   -0.15422756097022
N         8.20403775196427   -3.26921834057350   -3.25181290017254
C         7.79635921199887   -2.12802507282756   -1.18663824232168
C         8.59749464019507   -2.30218308951107   -2.32194205999502
C         9.74214966059671   -1.55057528043753   -2.61822721266368
C        10.56587817180450   -1.75681191386997   -3.77657321434743
H        10.41012287809933   -2.48364912410067   -4.55161492792858
C        11.59753388163115   -0.88394796044339   -3.67941380382729
H        12.42303375734365   -0.76576929235945   -4.35411169561678
C        11.39930371881696   -0.14848875984064   -2.46214327983477
C        12.31121810410066    0.78400284179107   -1.96010442117737
C         7.03662949872201   -1.43179586455702    0.72928438651268
C         6.08816482982463   -2.39259049704645    0.23399700814044
H         5.19267707983366   -2.70185462339964    0.73690197354260
C         6.55729923384733   -2.82050253235959   -0.96100279335457
H         6.10506078561198   -3.52651757399374   -1.62936459110147
C         8.04065641326550   -4.61974544824690   -2.99931244831772
C         7.57638307891893   -5.44316421611678   -4.02695931367443
H         7.35731685394308   -5.01006359050808   -4.99329305826472
C         7.39477452545803   -6.79517860024141   -3.81503418412859
H         7.03013409134195   -7.41628313303077   -4.62014291378379
C         7.67705204969835   -7.35486994922307   -2.57989203354008
H         7.53166953223639   -8.41138557680413   -2.41458014292117
C         8.15587384229357   -6.54659133600222   -1.56160922868302
H         8.39344791821059   -6.97634975581797   -0.59919153429057
C         8.34280792151909   -5.19386265479336   -1.76354769191593
H         8.72669599008741   -4.57346902215664   -0.96789483313284
C        13.49502974281456    1.08637936846221   -2.78999580252219
C        14.77766301000445    0.77319405449344   -2.34194462629863
H        14.89675503431930    0.29920592879352   -1.37837723523076
C        15.88440791945124    1.04939478730786   -3.11850543717943
H        16.87428506979984    0.80016475012462   -2.76959950287236
C        15.72773941286183    1.65199608947862   -4.36499315918887
C        14.44776524283714    1.96838338994260   -4.81787234673855
H        14.34407826560737    2.43717174374329   -5.78491328225859
C        13.34491107900535    1.68601365482765   -4.03978029134185
H        12.35350079472185    1.93649356703099   -4.38805586321997
C        16.87979685167797    1.97101602809975   -5.23517567390093
C        19.20721944997558    1.91200207171851   -5.46329529167140
H        20.06158932747624    1.57949524701872   -4.87913608619858
H        19.16016165837908    1.37674237837822   -6.41421271518091
H        19.27562349092799    2.98255172010291   -5.66873773797336
C        10.30336294885362   -2.58294088255072    1.92009216287051
H        10.01375254135786   -1.96431539028297    2.76954471177316
H         9.40226638619780   -3.05501703699351    1.50768611381855
C        11.36490695143522   -3.64663513974179    2.26474975319947
H        10.94415169997932   -4.64759508168155    2.18372274799237
H        11.74432664489538   -3.51772878205967    3.27634462191304
C        12.46594698721056   -3.41456835411717    1.21964288587168
H        13.30589999983171   -2.87973993140034    1.66165563623316
H        12.83134573988593   -4.33915906174574    0.77913818461498
C        11.76640906789074   -2.52224870315393    0.19198766680833
H        11.20478771002059   -3.13073273333881   -0.53161788142337
H        12.43783216712807   -1.85608651460141   -0.34800320953849
H         8.36880965378325   -3.03665386444678   -4.21979872454238

