64
CSD_code = REJCEQ | q = 0 | S = 0 | Stoichiometry = C32H26ClIrN4 | MND = 6
Ir        5.87972098394060    1.75863885450623   10.08958720371351
Cl        4.83204550689735    0.29139021599152    8.30352960131055
N         7.51198959080086    1.63491138609240    8.93668829816480
N         4.28255452318435    1.84708086832109   11.28786898882722
N         4.94185283022934    3.48442383791058    9.01310968077251
N         4.20319989381869    3.10172914596504    7.97402855542127
C         7.80564434939593    2.47660165591785    7.94691895318006
H         7.17335084491637    3.34877380013511    7.85004514700206
C         8.85500431751544    2.27897327294629    7.07199638244538
H         9.04384503493123    2.99101402737032    6.28469636411080
C         9.64569998796517    1.14787054968972    7.22698366063677
H        10.46969373632060    0.95466358031709    6.55685063907826
C         9.35430162692214    0.27430439457274    8.25463585670205
H         9.94770334573759   -0.61407292664387    8.39673855091781
C         8.28127732374069    0.53226188311682    9.10783424290492
C         7.86990550066080   -0.31514868836852   10.21588724482223
C         8.52361315337084   -1.48840990656035   10.59257531303483
H         9.40120408558195   -1.82395247129469   10.05957957963255
C         8.04632784855436   -2.23358661204918   11.65040792562271
H         8.54970216965881   -3.14379046228346   11.94224936440660
C         6.91534957332046   -1.81371114940820   12.33444839860582
H         6.53976685739233   -2.39999052848737   13.16142092721821
C         6.26215985951721   -0.65049558145259   11.96330454851220
H         5.38101646715244   -0.35037768216031   12.51453338202339
C         6.71923846070340    0.12331551318083   10.90338382066653
C         3.10441151107925    1.29720429687292   11.00028958073893
H         3.05342648626119    0.73178010945775   10.07899939222035
C         1.99834866024944    1.42040718851093   11.81883154178399
H         1.06685685675635    0.95404405733521   11.54146767229187
C         2.11760318416492    2.14935967539035   12.99428436990984
H         1.27528647204474    2.26571304928833   13.65959528707014
C         3.33709961314029    2.72258257333550   13.29817614071105
H         3.45740995802378    3.29362615187719   14.20458156829185
C         4.41717801840200    2.56145144461294   12.43198848001076
C         5.74985252349807    3.10943540395801   12.63372867467015
C         6.12742766189298    3.87065854572714   13.73944992492939
H         5.41726721481498    4.09246492799617   14.52270745458452
C         7.41833789340707    4.34676669657009   13.84087932570119
H         7.71273080264150    4.93630543195993   14.69672369000589
C         8.33823486774325    4.06138044457664   12.84289769631351
H         9.35122692043329    4.42946302547771   12.92582004499136
C         7.96679136863373    3.30656434871867   11.74276430076638
H         8.70626391050315    3.09778839659760   10.98102942530485
C         6.67135248133249    2.81956738183365   11.60503836352121
C         4.82091353552579    4.80747415901689    9.11066528867277
C         3.97947344045610    5.26866141119120    8.09569791020400
H         3.69997311219336    6.28709746176764    7.92052896285407
C         3.59529874329970    4.13971872059272    7.37543315141553
C         5.49972901503298    5.60682197085975   10.16396958937129
H         4.92155381760976    5.58387257255852   11.08779341010656
H         5.59749246303106    6.64120052132296    9.84341512742146
H         6.48202919016927    5.19503320092908   10.38068717656260
C         2.74366914704867    3.99499213140402    6.20846198093188
C         2.13164014174443    5.11258258016415    5.63979783500731
H         2.28906519137309    6.08739760492657    6.07509141039971
C         1.32635024045441    4.98244815413626    4.52503331437383
H         0.85976377183326    5.85706314130589    4.09553773693693
C         1.11704544317898    3.73619931964003    3.95794732045919
H         0.48816212041766    3.63572330474768    3.08582707444619
C         1.71883658341535    2.61987472470416    4.51540958594114
H         1.55919742580547    1.64558976334518    4.07751935830920
C         2.52559204929272    2.74245926592909    5.63047827723106
H         2.98700818099951    1.86140616866543    6.04963362971063
H         4.19783210991879    2.08370369532108    7.77651629616332

