108
CSD_code = REJCEO | q = 0 | S = 0 | Stoichiometry = C46H48BF5N6OZn | MND = 4
Zn        3.47114390054835    4.32587463152238    3.62448439868814
N         3.56449048601036    4.58751459372511    1.65363769677113
N         3.53038212419429    2.34319077604889    3.33367649995269
N         5.34856297807798    4.30079237254599    4.19967733511917
O         2.28979285806700    5.30066631348539    4.58078001299417
N         4.71262402757420    4.08031631485715    1.17864963288468
C         4.86865949077911    4.43034706343770   -0.11053469865450
C         3.77200953387319    5.18627498282646   -0.47724540012047
H         3.57815969707143    5.60790792846738   -1.44172776357643
C         2.96112514661157    5.25163291085378    0.66375043208169
C         6.03777133722015    4.04609107700187   -0.94264698817678
H         6.09411741310958    2.96454984457112   -1.05272204145164
H         6.96343370820594    4.38818666119834   -0.48430155021334
H         5.94491641182074    4.49553477433164   -1.92742128142876
C         1.63882815104769    5.84865136928580    0.78350033309880
C         1.22270601267369    6.82942652621172   -0.11626767507165
H         1.90210536016227    7.18538764685264   -0.87673099336115
C        -0.05278570342851    7.35506723893005   -0.04347739682113
H        -0.35403370066953    8.11389706110059   -0.75199778218729
C        -0.95322011673637    6.92523976974140    0.92409403520403
C        -0.53192211537431    5.95046958644994    1.82309907930895
H        -1.20704205154907    5.59198649755173    2.58502388778231
C         0.73791112637497    5.41416332993786    1.75508007871050
H         1.03240817265900    4.64279817162512    2.45158290725311
C        -2.35661384530418    7.47571669477292    0.96124720728947
H        -2.43601415215273    8.25837131312598    0.19820871738480
C        -3.35905735128281    6.36990287734668    0.61759660733834
H        -3.12533644143068    5.93158984088583   -0.35088644601604
H        -4.36779336617098    6.77542439253592    0.58021296803393
H        -3.33192659424345    5.58151792660223    1.36619520182501
C        -2.68390188884249    8.10074426298484    2.31807717854575
H        -1.99864249197945    8.91475058064535    2.53818729364543
H        -2.60948202248032    7.36566888476661    3.11531098233310
H        -3.69669618079325    8.49777556027196    2.30973692987642
N         4.60881988576968    2.03618773839103    2.59094055107113
C         4.68769401913773    0.70203613596696    2.43394906044228
C         3.61898924028606    0.13484857226237    3.09805038344913
H         3.40135536659771   -0.91049859517763    3.17076672135582
C         2.90640862694118    1.20667744923602    3.65588748277262
C         5.75862314046690    0.01021452716062    1.66999285307941
H         5.59375136984055   -1.06315186946372    1.70773813618476
H         6.73719070168892    0.23160434367194    2.09170936641142
H         5.75722054310169    0.32979417618433    0.62953086374046
C         1.68987600764975    1.15327309246726    4.45391954891406
C         1.18052511343169    2.28818714729653    5.08465949627564
H         1.68488054009016    3.23736857447416    4.98745939169387
C         0.02694539525408    2.21526295566096    5.83837900393486
H        -0.33907748846709    3.11417464351420    6.31088568765963
C        -0.65992393879541    1.01622225580754    5.99527820008773
C        -0.15170977838319   -0.11275450501130    5.36517889587041
H        -0.66783272193319   -1.05761967623620    5.46760673544339
C         1.00100113599338   -0.05032603174503    4.60716547513253
H         1.36217105775809   -0.94546728565970    4.12458599536431
C        -1.92038762463154    0.93610267255996    6.81972173960103
H        -2.27663251695872   -0.10035595881490    6.80178264576876
C        -3.01299826191040    1.82658052492092    6.22384060432444
H        -3.20638964764648    1.54764592262201    5.19021277101926
H        -2.71325732495632    2.87113680695787    6.24647916750394
H        -3.93598478198801    1.72087569242397    6.79007523741490
C        -1.64267952434968    1.31953221961537    8.27489446933537
H        -1.31518578645683    2.35359032952946    8.34499092919702
H        -0.86429793517030    0.68404256578135    8.69190735084849
H        -2.54343272556829    1.20269514532269    8.87382773431232
N         6.15552669128251    3.87999654349505    3.21881398284071
C         7.42946663786115    4.19542908156847    3.51082234147021
C         7.43219501649605    4.85044475941265    4.72983450231472
H         8.28330248615158    5.22546317940174    5.26055066319060
C         6.09343995099263    4.88942644429938    5.13320586052268
C         8.58382404444587    3.87773682587209    2.63086204415815
H         8.47535398355106    4.37099356055092    1.66649849600234
H         8.65294296340652    2.80575323693019    2.45575226420957
H         9.50321507535521    4.21932198889786    3.09832749829008
C         5.49415079470426    5.42670031616408    6.34581814291260
C         5.97733259526410    6.59653876201655    6.92624150485288
H         6.81491381321399    7.10781119161379    6.47433362155008
C         5.37405054350158    7.11827776136044    8.05334980759708
H         5.75784433152330    8.03426410932176    8.47809627526342
C         4.28055257283958    6.48698712062012    8.63661401662394
C         3.81586021919373    5.30910602227171    8.06373663850411
H         2.97146217056329    4.79931745725309    8.50510537213752
C         4.41051442421564    4.77978038790156    6.93511416433468
H         4.04013603716296    3.85951813116992    6.50760358040766
C         3.59810396846027    7.06815896881822    9.84997827326481
H         2.80373662860134    6.37831657056308   10.15592799166656
C         2.95318571893577    8.41235024755986    9.50278242178311
H         2.25636488137499    8.29384765833707    8.67571423649148
H         3.70843713261494    9.13900110787672    9.21296326147351
H         2.41104756852608    8.80384051919290   10.36085649684177
C         4.57352013160765    7.21827697919826   11.01891202469264
H         5.03888685008922    6.26208230142991   11.24839193214336
H         4.04743718781689    7.56877312981673   11.90429509367329
H         5.35743157558099    7.93341302473684   10.78267730500394
B         5.55557242005294    3.11628579669132    2.03187401945216
H         6.40574364729960    2.62626357058022    1.37946258445133
C         2.31034085825205    6.61982711915266    4.95275994729720
H         3.17216273870776    6.85637098491417    5.60378291829086
H         1.39001375751651    6.84127843336674    5.51453874133120
C         3.50255402509839    7.58347523425281    2.94438886263931
C         3.57969699146029    8.36341359336999    1.79881344286371
C         2.50111775288585    9.16467774150400    1.44377013245918
C         1.36490643803031    9.17018395632556    2.24372500977745
C         1.31281275776848    8.36788438455795    3.37849799381012
C         2.37751491821164    7.55814472850731    3.75760155500191
F         4.56576686557693    6.82873021321750    3.26758756487649
F         4.68177859949900    8.34491490290791    1.03888745513173
F         2.55686054468886    9.92236716985533    0.34485476535770
F         0.32843086317473    9.94940855933954    1.91697246501548
F         0.20504882606829    8.40523687747760    4.12633683102187

