80
CSD_code = REJDAN | q = 1 | S = 0 | Stoichiometry = C30H42CoN2O5(1+) | MND = 5
Co        6.59317705771602    4.05594826681852   10.02221188836542
O         8.04103649603501    4.01922440762842   11.02866464368936
O         5.46742732750311    3.72103797607211   11.34710731978135
O        12.85326509053431    6.59675497898258   10.79130732155394
O         0.81718831928769    0.87179427175631   11.66975500836224
O         6.16185278583030    6.54205158489145   10.43310624908466
H         5.37728509496669    6.63760128326624   10.98025586783222
H         6.89586269191062    6.90080100867819   10.93906834784836
N         7.62334527323735    4.55341343774713    8.56101572073146
N         5.22516741747124    3.85037301617476    8.80932511148345
C         9.16974326867847    4.64121640182040   10.97212813241235
C        10.08706086840776    4.65930476487730   12.08070177147200
C        11.26852264657563    5.33526006823418   11.93621251061738
H        11.97629221340009    5.39420934580261   12.74522836622222
C        11.65411357494329    5.98966096628527   10.74497317846312
C        10.80613106654121    5.95218689493226    9.65972899451304
H        11.06943628215452    6.40692118688195    8.71812829806743
C         9.56949364746482    5.29690059277571    9.76557187778914
C        13.32353725321387    7.27951009140096    9.64975316072074
H        13.44852889831852    6.59915764094147    8.80245411186632
H        14.29240454969990    7.68770621926169    9.92993462732413
H        12.65256563909217    8.09662051647379    9.36954324737941
C         9.70228796233655    4.00243873107100   13.39490521234660
C         8.44031714008609    4.70036410847605   13.91936428866469
H         8.63700371564387    5.75965003828972   14.07456889491944
H         8.14358588450680    4.26466936950589   14.86889449460542
H         7.62238540503596    4.59222528479811   13.21471069447488
C         9.44633941721262    2.50851997279439   13.15626445201038
H         8.67261674003937    2.35352983416329   12.41161838729788
H         9.13457089465117    2.03392830380341   14.08282746303367
H        10.35890709265635    2.02669068817342   12.81242230888125
C        10.79236762934404    4.12921263240514   14.46270821760674
H        11.71796123008243    3.65942591653310   14.14040183509449
H        10.46017230203713    3.62395204500001   15.36634697958380
H        10.98472191722620    5.16894733328148   14.71496871632696
C         8.77045089949715    5.14948028164107    8.60285968713363
H         9.21569848862917    5.51879121311973    7.68394535386421
C         4.37893211147558    3.03242747013689   11.41808914183081
C         3.78476766247825    2.67134550848462   12.67855727813719
C         2.62019394113075    1.95267039678407   12.66514313767365
H         2.15140827262095    1.63844855060604   13.58189557655301
C         1.94820257353424    1.57283380001606   11.48139373407448
C         2.47666263473378    1.94757765887267   10.26543738090738
H         1.98330700761183    1.71295836690594    9.33572041465712
C         3.68273992970646    2.66333314288483   10.22316548298393
C         0.08328387649216    0.43356630900519   10.54711398170844
H         0.68080210225790   -0.22947416117085    9.91514142155845
H        -0.27985677792777    1.27830529225893    9.95457630339739
H        -0.76554276993760   -0.11684988430139   10.94757244331652
C         4.48867952530261    3.01377171645922   13.98045849529260
C         3.69550354933032    2.57869343502297   15.21588144080260
H         2.71853535346084    3.05449543332164   15.24692011914656
H         4.24084901409124    2.87767269324428   16.10780059815567
H         3.57218204642669    1.49953077428529   15.25017299101622
C         5.83280666842852    2.27444167735091   13.99051123303729
H         5.66801497215431    1.20063496860117   13.93366033669273
H         6.36887944170951    2.49136390840228   14.91000805320580
H         6.44420879043814    2.57674697520749   13.14690626069255
C         4.69796715169054    4.53166033964293   14.06712156715023
H         5.29059757026305    4.89124451183229   13.23279144665930
H         5.21457546594711    4.78060698341510   14.99028329756105
H         3.73640358578286    5.04083046519852   14.06182630672776
C         4.13770760627798    3.16723806879090    8.97827689142556
H         3.46832436302495    3.01003935770671    8.13771475543501
C         6.98282417430155    4.29471100226826    7.27866379179097
H         7.13163168346487    3.22611380026645    7.06362208868893
C         7.44390184644636    5.10270583231719    6.06720324973953
H         8.49139139708155    4.89705635154747    5.84177322958883
H         7.32770335750752    6.16937397101097    6.27009016024366
C         6.60399455010990    4.70927671254994    4.85196438024504
H         6.78475723235071    3.65946586673800    4.61237457705807
H         6.91447320487726    5.30404664402432    3.99275486238798
C         5.11886286733417    4.92290547275328    5.11546100542200
H         4.92857692956732    5.98275600978984    5.29511079775208
H         4.54321883938471    4.62503985682286    4.23891486869375
C         4.65320128277680    4.11328449748750    6.32549569729175
H         4.77507937748972    3.04653957910747    6.12446539755613
H         3.59628409838566    4.32267239372506    6.49759347548801
C         5.48599883272005    4.51466245774699    7.54050157290544
H         5.34294047571817    5.58819511815278    7.72818801392278

