68
CSD_code = REJGEU | q = 0 | S = 0 | Stoichiometry = C26H33Cl2N5PRh | MND = 6
Rh       20.89418280342961    9.42289137287881    1.06798351272573
Cl       19.17817341975773   10.98268181991923    1.32670046980161
Cl       22.58715007998471    7.83670834571662    0.84933001212370
P        20.66940913880458    8.98691596384704    3.36334239067690
N        21.09415672500122    9.92841471139509   -0.87987372930281
N        22.32061655910480   10.78266778928304    1.35827204088921
N        22.36124741330492   11.92785392873293    0.67565802272784
N        19.54792388431624    8.09945952026940    0.38401946458657
N        19.74671441931786    7.43774819813645   -0.76010979444284
C        20.99363624765996   11.24734979601981   -1.22022537523889
C        21.49044451835011   12.26412254142324   -0.37874450796351
C        21.23296203926640   13.60245737392380   -0.64515150269980
H        21.58096256734430   14.35293022451430    0.04996306599948
C        20.53340831061707   13.98443528217814   -1.77558050401362
C        20.10738919124896   12.98773520622722   -2.65354154542924
H        19.57329690658849   13.26720517693045   -3.55027698621754
C        20.32273635539747   11.65792974705986   -2.38378769793458
H        19.95365700539780   10.89609389176890   -3.05524903264098
C        20.23071314433912   15.42473410906733   -2.05634506816779
H        19.16250209223786   15.61128962030998   -1.94717507886198
H        20.51134008100047   15.68404843519990   -3.07605205093326
H        20.76363025069652   16.07701011474624   -1.36918225862027
C        23.42707641254549   10.71524470360764    2.08934308682871
H        23.65434944642187    9.84251372111568    2.66991969229051
C        24.18952959333734   11.86308042095759    1.89751756155987
H        25.12828743813126   12.10518181379502    2.35042366929524
C        23.47846697503592   12.61260081825976    0.98787751542021
H        23.71344711422929   13.54970391919938    0.52679457733453
C        18.35169720290083    7.74643351665168    0.83889634218289
H        17.93677481941435    8.19726798636589    1.71560094176908
C        17.76936060473614    6.81958646071633   -0.01919108000957
H        16.81305175884060    6.35010491819272    0.08041595623663
C        18.68840143066316    6.64920449866395   -1.02857725983989
H        18.63580696514915    6.05728748123689   -1.91877553106584
C        21.34517030001090    8.95821781380536   -1.80375912175422
C        20.80086928973806    7.66371467668845   -1.66684700963574
C        21.21082372006031    6.63072270476176   -2.49726609868657
H        20.82816481874582    5.63423230491186   -2.33107520911668
C        22.11124425832118    6.85005510277813   -3.52711652666519
C        22.58574310324109    8.14472205706904   -3.72008679480615
H        23.27601212073604    8.34376771940729   -4.52719578148502
C        22.22265476891374    9.17015562257099   -2.87855863770999
H        22.63310500644065   10.16031913682375   -3.01521887758021
C        22.56184040711157    5.71436183502377   -4.39501515732938
H        21.71283068278061    5.11909965112672   -4.72731444240362
H        23.23105854357275    5.05902966133882   -3.83758534819124
H        23.09367133449005    6.08284942182878   -5.26828951486285
C        21.34706309520319   10.25915944459716    4.52638220136428
H        21.16851084924101    9.89961603573762    5.54316399689764
H        22.42775828842526   10.31167426608357    4.38438771421080
C        20.73120312392044   11.63791189011776    4.33133323704815
H        20.86094805274479   11.97655744966974    3.30672298763065
H        21.20025481870886   12.35927275353893    4.99902789826204
H        19.66325203391017   11.62137130374012    4.53272884776451
C        18.95329085258960    8.78285084992320    4.03359333395804
H        18.35740850940544    9.58717546476033    3.59431852806768
H        18.58696505302808    7.83152559462547    3.64023041054384
C        18.79003659056946    8.77796152353854    5.54919379973659
H        17.76418939484032    8.50648777258920    5.79408076912480
H        18.98203329264627    9.75699891098009    5.97856154454288
H        19.44731630975362    8.05059845780713    6.02068217588180
C        21.53534152272380    7.49029388476748    4.01239331649161
H        22.58139267894159    7.58458490009346    3.71151033386523
H        21.48858745317333    7.49004622543867    5.10485155793014
C        20.97432822519650    6.19594669252628    3.43966621125086
H        21.00731851486008    6.23387667070146    2.35279137026140
H        19.94791280073412    6.02707389732519    3.75857102387357
H        21.57619727065550    5.35067487499640    3.76721794246242

