39
CSD_code = REJJIA | q = 0 | S = 0 | Stoichiometry = C10H20N2O6Pt | MND = 4
Pt        0.82853073545396    0.88846188199271    2.94581656123818
O         1.87652226164965    2.04756970460695   -0.34888578386135
H         1.02811141565000    1.72792273813655    0.01378197879904
O         4.08074602730161    0.90390009526824    6.48732794083223
H         4.76504241086217    1.49434405864851    6.15489523187836
O        -0.25332105052681    1.00440341273555    1.24078512523180
O        -2.16946892410245    1.56755652340590    0.31985090004161
O        -0.67419736640555    1.45923811540863    4.15419864930725
O        -2.70060968204973    2.27592675624104    4.34497924250234
N         2.28564086350819    0.01816299309167    1.66914059418782
H         2.65369905648001   -0.86513939729805    2.02264036172553
H         1.67152352500896   -0.20635542202643    0.87858157746220
N         1.83950773884784    0.66551355024136    4.76054566570216
H         1.12236701281108    0.18839504034341    5.31473349455188
H         2.68317657631059    0.08499844275699    4.78659631980566
C         3.37561090326221    0.86140769811706    1.16033783844701
H         3.87692743135678    0.37633574767059    0.31531902661645
H         4.10463704504742    1.03671937505057    1.95487552049635
C         2.79378773331535    2.20526895356408    0.68980779849097
H         2.33884044509350    2.70708148194487    1.56153653365222
H         3.60354988302795    2.83061015464373    0.30389533411938
C         2.15636705190517    1.93244698419757    5.43720216437911
H         1.22836725279004    2.46994251987574    5.63663389702328
H         2.78797332585030    2.53546230488527    4.77638693294988
C         2.90595745557331    1.64335863139143    6.74520428152212
H         3.12419649230882    2.57551679944895    7.27560463693015
H         2.29325064653064    1.01055094075877    7.39249403491167
C        -1.36301760677356    1.69525636273705    1.21159869109276
C        -1.52336684541039    2.75247805278887    2.30392393228232
C        -2.55410009227391    3.85318304088200    2.02158513406775
H        -2.91326767015317    3.81959252225410    0.99562141951026
H        -3.39747196688853    3.84955526049143    2.70785374433414
C        -1.47538409751716    4.91480227484277    2.28342482561180
H        -1.59151708391454    5.40094013876252    3.24999033349456
H        -1.35748509327604    5.67372300958680    1.51256116197453
C        -0.39796415722149    3.81952925909163    2.29358177760605
H         0.27578306215323    3.81072624481050    3.15581219310716
H         0.18308481889440    3.80473786492957    1.37118284478911
C        -1.69162953447630    2.11517588372014    3.69507808318193

