39
CSD_code = REJJAS | q = 0 | S = 0 | Stoichiometry = C10H24N2O2Pt | MND = 4
Pt        0.48908929349859    5.07284322416024    2.56382361045791
O        -0.72110906744759    3.96309406881042    3.69661247316052
O         0.65200794644646    6.56962634054874    3.87266181789490
N         0.32469135532222    3.34884175961772    1.27085541361040
H         0.32683751471146    3.49307311603336    0.26340292161791
H         1.11703532337791    2.74771665397708    1.50756607715557
N         1.71719049651355    6.40339009186981    1.38394207762848
H         2.41005965575173    5.99960169818325    0.75728161866029
H         1.06861780455984    6.96089476012044    0.82385415430890
C        -0.89046440496528    2.68358640069097    3.22478819311687
H        -1.84371206484640    2.30334040594061    3.62214369908076
H        -0.08747550507617    1.99728969222615    3.56982655253207
C        -0.91299180495628    2.64746560682035    1.68034740330892
H        -1.75768595448762    3.25631161193860    1.33817870255889
C        -1.00324385463413    1.23614943432801    1.07578635992506
H        -0.17521792363204    0.63634927037121    1.47439031505583
C        -2.31834409297350    0.56403133013597    1.46606014056016
H        -2.38089778054342    0.42623845944081    2.54080499921644
H        -2.39615777183761   -0.41202124960311    0.99218659339823
H        -3.16209735087429    1.17043399217505    1.14552958746254
C        -0.88763239434071    1.27572747575435   -0.45122699099880
H         0.10108126407473    1.59124654038909   -0.78035490806806
H        -1.63091956310185    1.95157711701749   -0.87018184786095
H        -1.06443228090470    0.28442089522105   -0.86165532604752
C         1.26248034435667    7.68636322292580    3.35438720005369
H         1.69140840676596    8.25447161593269    4.19377772791746
H         0.54460398395731    8.35447744254478    2.83167064239388
C         2.37548425477541    7.31035180149639    2.35102367647560
H         3.12994951322033    6.72075796724203    2.88445394748220
C         3.04131306753071    8.51108536993136    1.65783893344203
H         2.25649279828092    9.11820165800757    1.18922665269918
C         3.78102672941484    9.37821067631302    2.67495882244669
H         3.09295704314430    9.79752267402280    3.40211347661452
H         4.28693536706772   10.19906429455703    2.17145494966903
H         4.52546846226518    8.78787909128911    3.20393757627391
C         4.02108296531675    8.05548712190385    0.57183238266568
H         4.56529351433113    8.91217170258139    0.18162163537158
H         3.51310941316469    7.58429032055740   -0.26799921127760
H         4.74556529677197    7.35543634452829    0.98397795004538

