47
CSD_code = REJKUM | q = 0 | S = 0 | Stoichiometry = C18H20MnO7P | MND = 6
Mn        6.58903267263593    2.72524991738599    3.07126872348528
P         6.09884010141693    3.53341535486006    5.13448388106126
O         6.49448781836953    0.81294067273931    3.95067362337335
O         5.05339553050030   -0.80074359768718    4.54124838763812
O         3.34151096385252    4.13069428223752    0.16949283567077
O         3.81102904401216    1.95730098056646    0.44357745992467
O         6.77861718443111    1.52960047561824    0.40735575078102
O         9.48908745808797    2.85406866227895    3.48293906383226
O         6.52321071031400    5.38290661224470    1.83895663410448
C         4.58759046672728    2.37561410107334    2.98774104385235
C         4.23318572533400    1.18517900583981    3.53912949231801
C         3.49103150783236    3.22107980258794    2.40413578156774
C         5.32692414156793    0.39781499141277    4.01435392979560
C         3.54348114535821    3.18833869926154    0.88483050103225
C         6.17184108551598   -1.57188152138768    4.95418858365524
C         3.89292576582954    1.80002894608619   -0.96705853023061
C         6.00707486116359    2.35499336795051    6.53230007512354
C         7.32463242926854    4.70820107590159    5.83207616762825
C         6.70965524716646    1.99255256841053    1.45602805270888
C         8.35242747756067    2.80094947057465    3.32872254800384
C         6.53158074984244    4.33950911210558    2.33258332644183
C         4.56567070662230    4.49735178339371    5.31306039316444
C         4.52199819330353    5.76682319271253    4.74083449033063
C         3.36520691880645    6.52093668769388    4.80041474343781
C         2.23598510245914    6.01064246131011    5.42088498920839
C         2.26769910636087    4.74237777278577    5.97474495979735
C         3.42422090255062    3.98399019023843    5.91743710007552
H         3.22671245526992    0.79216838540401    3.60285590741813
H         5.39589905957079    6.15657558369888    4.23743542341796
H         3.34121616514983    7.50400375116308    4.35462202371134
H         1.33078947518598    6.59746045868342    5.46490121383674
H         1.38605716964245    4.33799995072173    6.45053537909601
H         3.42799901458081    2.98995613387558    6.33993410464592
H         3.57490949536370    4.26701088061657    2.70672405820659
H         2.50304653222795    2.84619645565163    2.69803493562051
H         5.77452109336251   -2.53095558721822    5.27673055724329
H         6.87033805457606   -1.70661910940064    4.12550330198724
H         6.69433096486862   -1.08099608102056    5.77911304528294
H         2.95219441156533    2.09574275121270   -1.43614503403465
H         4.69866050226004    2.41752976629895   -1.36774090383531
H         4.09773733569854    0.74744590749648   -1.14306432431876
H         5.25112796960497    1.59087627632630    6.35510490577364
H         6.98168482452231    1.87211352345050    6.62123150322551
H         5.77784744347584    2.89853191003803    7.45037324600282
H         8.25756770542583    4.17011679154911    6.00453423140884
H         7.51652796972859    5.50759565771245    5.11723254748569
H         6.95928934088103    5.12901152552547    6.76977986988097

