24
CSD_code = REJNOM | q = 0 | S = 0 | Stoichiometry = C5H12AuCl3N2S | MND = 4
Au        5.75731359886799    0.41831052957770    3.43572719042893
Cl        4.44843149906994    0.81037968480974    5.25263077866657
Cl        4.23233060232226   -1.07163997940836    2.67448113858972
Cl        7.26471800776553    2.00865092108424    4.12249754376816
S         7.15835537639454    0.02972085634192    1.55099096304610
N         6.76790167460425    2.60295399195895    0.96229696969057
N         8.97283240191815    1.91530831044151    1.27648850150376
C         7.67078629134010    1.66899751174712    1.27579753517352
C         5.42454724278284    2.23578756657647    0.57495772632229
H         5.43095645061700    1.28538848181764    0.04481088798130
H         5.03558428188303    3.01329746584692   -0.08197374171946
H         4.76017619668336    2.14481635065354    1.44192056615143
C         6.88949768241843    3.97602736178645    1.41717045307145
H         7.75268532303347    4.08768489142674    2.06467983359427
H         6.00556781517404    4.22156898726788    2.00819896248536
H         6.94751432261937    4.66651038335809    0.57375117836305
C         9.90788563069586    0.99986738531146    1.89013913453835
H         9.43582517575377    0.50337358242080    2.73465055645080
H        10.76404382945119    1.56760866121881    2.24948120063852
H        10.24319866401706    0.24359258925127    1.17780816356685
C         9.58371527352834    3.02270826201917    0.57600262833116
H         8.88580587517469    3.46237826813816   -0.13032190581521
H        10.44067832799644    2.63893008645953    0.01971740715633
H         9.93894845588201    3.78817784989367    1.26849632801157

