26
CSD_code = REJRIJ | q = 0 | S = 0 | Stoichiometry = C12H10CoIS2 | MND = 8
I        10.91369182854413    8.29893220500257    2.62549802594665
Co        8.59789582504306    7.33673149842152    2.26874336331190
S         9.32215575283482    5.23238749836864    2.49890436355804
S         8.19484903841374    7.29249230688063    4.46455970139464
C         9.48078326162077    4.93613645903271    4.17249292077790
C         8.96705568299802    5.90429867389406    5.09064881795854
C         9.00533789524148    5.83497111578616    6.48829919231357
C         9.54576050119924    4.87876210805630    7.32493129454787
C        10.18503724373264    3.69040967324947    6.99667038717742
C        10.41365098398265    3.17699695826899    5.72649611108476
C        10.09761284906919    3.72198164092624    4.49821119655396
C         7.81890438732580    6.97209551506535    0.33456807361947
C         8.38217597464842    8.25880009561582    0.38308426990087
C         7.69031085716676    9.00889790855494    1.37813697285660
C         6.68329912181483    8.18501100018573    1.91712544431667
C         6.78736062129061    6.91126868084743    1.30925018100667
H         8.54745693369666    6.68911008833627    6.97255020560100
H         9.45836857979021    5.09095721109934    8.38301749627801
H        10.53931771326451    3.09224041230573    7.82556073648607
H        10.91659336502565    2.21891611937548    5.68869918485303
H        10.38218735313811    3.13943012830405    3.63032094241133
H         8.07745269537530    6.19026538532879   -0.36224528288556
H         9.14333051492476    8.64486382732258   -0.27713132506396
H         7.83298787723890   10.05811368215501    1.58624695709018
H         5.93903919565066    8.48189969452689    2.63907585821074
H         6.11238394695816    6.08343011308456    1.45948491069214

