96
CSD_code = REJTOP | q = 0 | S = 0 | Stoichiometry = C47H41NO4P2Ru | MND = 6
Ru        1.66426780731590    1.08121077180170    4.44405902535126
P         1.87425834344795   -0.57327488458777    6.02551941295160
P         1.55275480118620    2.59581116668195    2.71581879974096
N         6.63233888085218    3.94690884660914    6.96911503620226
O        -0.51908515187987    2.44758847144988    5.94205739613533
O         2.84568529550258   -0.15056010798213    3.12778388084070
O         0.68650515731991   -0.44914938828292    3.06015286053984
O         5.92226735225274    5.08122018045480    8.81828348744883
C         0.36298317154103    1.94251668287762    5.39212909010591
C         1.83905963961716   -0.74583471746498    2.67630140048530
C         2.03488986136902   -1.84096985207865    1.64664403662171
C         6.80328792708944    4.73727908819968    8.06255788638504
C         8.25321049217536    5.15601890000467    8.24335817684801
C         2.81233834265871   -2.02230269781549    5.45143200004951
C         4.13066373360574   -1.80985193529723    5.04745655710595
C         4.86899965023028   -2.84895013086153    4.51491451725542
C         4.29589977479872   -4.10331208544205    4.36757518873553
C         2.98155441179289   -4.31296928076488    4.74911336320385
C         2.23600363878792   -3.27625134836228    5.28490148159310
C         2.66199429493848   -0.11255311251602    7.60217179893933
C         3.90915750705861   -0.54361486766866    8.03137894239780
C         4.43808912088025   -0.05521921786044    9.21465723117415
C         3.72912719243213    0.85729565041089    9.97512613653063
C         2.47481509977728    1.27645792523912    9.55946254255677
C         1.94629179547361    0.79779374384987    8.37785903636772
C         0.32307986600104   -1.30807509116433    6.63297705023770
C        -0.84984328739938   -1.10664174922676    5.91483707978152
C        -2.03910364216200   -1.65566906271769    6.36177767740532
C        -2.06113891913433   -2.40629177006537    7.52530380059904
C        -0.89214543096121   -2.61316037743615    8.24202119518349
C         0.29822117528242   -2.06719200959509    7.80054184856170
C        -0.13294582969727    3.16772896189512    2.32958499384767
C        -0.38275271959158    4.41288031883281    1.76212658298663
C        -1.68263893381596    4.79305981849965    1.48089852849316
C        -2.73591991781059    3.93674499894255    1.75916792984173
C        -2.49038910452974    2.69284632467075    2.31797396610623
C        -1.19326557683096    2.30847207226869    2.60428700770497
C         2.43637426684844    4.17556722107735    2.91482719626429
C         3.32759179527907    4.72003792135373    1.99978988967203
C         3.96214653211702    5.91743818961114    2.28646480708593
C         3.71097106937389    6.57497351060088    3.47819173346657
C         2.80514080061241    6.04536584731454    4.38450307529311
C         2.16965716348711    4.85276106735495    4.10300766993020
C         2.12224677351193    1.95841057474246    1.10830242428932
C         1.23859335376534    1.61991032085493    0.08953633705273
C         1.71401422716438    1.03821597461048   -1.07354449668137
C         3.06627482691675    0.78076124006442   -1.22350092430395
C         3.94999282042199    1.10389699902946   -0.20454172832111
C         3.48156189108995    1.68467831812450    0.95804375124209
C         3.17987744239605    2.12864951198274    5.35868270401983
C         3.09384634056587    2.95631597167489    6.47374461077211
C         4.20564174437171    3.56542571300053    7.02903569121540
C         5.45834268554080    3.36276737474418    6.46584042090071
C         5.56709269974551    2.54739404869545    5.34419419762646
C         4.44424436398562    1.94420445847775    4.80826431988477
H         7.46093640704398    3.73084244331540    6.43165008116505
H         2.47629860417895   -1.41146056643878    0.74903152698060
H         1.07933152164602   -2.29795808322637    1.40631461952449
H         2.71880743005053   -2.58813886866181    2.04473998425843
H         8.59320370150631    5.71808674235194    7.37574631475487
H         8.88649321584302    4.27960747430895    8.36606338042372
H         8.33467663795616    5.78131915691475    9.12739781637972
H         4.55642502122393   -0.81842887286557    5.13790956952461
H         5.88981810496449   -2.68136287067831    4.20260131249808
H         4.87143506065128   -4.91408867853449    3.94470381166635
H         2.53018787552698   -5.28648964618390    4.62211675061544
H         1.20548843010711   -3.44086469493898    5.56758522255072
H         4.46863385051981   -1.26400775985776    7.45207092836661
H         5.41184491406096   -0.39065009013430    9.54176228536903
H         4.15195167575855    1.24265560733310   10.89070603129234
H         1.91686265763825    1.98422062684746   10.15407708337094
H         0.97048294062385    1.12161764322393    8.03691033643550
H        -0.81733166246324   -0.52590530820924    5.00115417340638
H        -2.95001141357281   -1.49615470335182    5.80369744432671
H        -2.98974622775612   -2.83201730169296    7.87649720427953
H        -0.91077449593857   -3.20080922930829    9.14843506371506
H         1.21276804698547   -2.22252424448125    8.35709096475032
H         0.43935821752354    5.08172301012902    1.54847728209853
H        -1.87527348205558    5.76228825594542    1.04419218125494
H        -3.74920445449784    4.24024098054717    1.54023470246627
H        -3.31127880085987    2.02440316966306    2.53261870813317
H        -0.98715065001316    1.33421910228666    3.03174036711147
H         3.52508673503852    4.21886205838116    1.06251404475758
H         4.65703366375794    6.33706227784819    1.57297808029825
H         4.21754136834059    7.50285318917263    3.69949108459766
H         2.60261798654856    6.55937566215493    5.31180200223940
H         1.45886992213800    4.42378872478671    4.79776476433194
H         0.18056215678881    1.80849402581252    0.20723000597197
H         1.02360363917124    0.77899691777320   -1.86315088898803
H         3.43213475885329    0.32141330584121   -2.13040953896422
H         5.00409033541073    0.89358727560273   -0.31597873805863
H         4.16112640218291    1.92456494901678    1.76503531925899
H         2.13296220219717    3.14342846238557    6.93593455754088
H         4.10718337344219    4.19468956509610    7.89739245483959
H         6.53806993123449    2.38493035087958    4.89087626265156
H         4.56715778150217    1.30912544213612    3.93722681708182

