107
CSD_code = REJWIP | q = 0 | S = 0 | Stoichiometry = C34H66N4Si2Zn | MND = 4
Zn        2.32830184999008    3.06663695080951    3.89714917500029
Si        0.26368830733448    7.44461360863487    3.75614604013050
Si        2.34193446963084   -1.02974105266937    6.45098068664829
N         2.97456814089312    1.18486805369003    3.74727698497661
N         3.05608352180412    2.34764048708751    5.60813731932748
N         2.47830013098196    4.79950363876326    2.91991820294453
N         0.55996434808107    3.90202607303985    3.49936996358431
C         3.30512407233677    1.19277014963836    5.02401033674581
C         1.16335345173281    4.91564336065921    2.91470327148897
C         3.81877906298688   -0.01102705752763    5.74292206589477
H         4.48564644621167    0.29491426399605    6.54603725226875
H         4.40502623784048   -0.62320654461414    5.06251948122424
C         0.45788916701395    6.11455170767700    2.37324246806874
H        -0.51854304083428    5.82640794263860    1.98998483126609
H         1.01848147785730    6.51999692089201    1.53491723514041
C        -1.57452598126972    7.55005399125365    4.26449565434733
H        -1.73144954959918    8.35445954101011    4.97659133394322
H        -1.91917398531359    6.63152016455886    4.72891319305788
H        -2.21333657589456    7.74638614364746    3.40797933467425
C         0.79763187745234    9.13118434381830    3.03378820567149
H         0.21313748930761    9.39147564904989    2.15636563100091
H         1.84412291428965    9.13665757339825    2.74353756923370
H         0.65883125188121    9.92242857702029    3.76342638275304
C         1.33553522286318    7.01846511928736    5.27365639637268
H         2.37034618718869    7.31126463175218    5.12168136674845
H         1.32902945825291    5.94710345308978    5.45579557056966
H         0.98069596953118    7.51653875071982    6.17171545645167
C         0.69014461049522   -0.45561316708533    5.69351158377052
H        -0.16021006542515   -0.77096452016118    6.29185576690713
H         0.55550421617166   -0.85462764562689    4.69230026187191
H         0.66486733173114    0.62783465383271    5.61318040974432
C         2.64346633795643   -2.87054526296219    6.03844179155030
H         1.84685019573324   -3.48913274197671    6.43891264910406
H         3.57698415571600   -3.22653989930083    6.46374858200124
H         2.68389405792049   -3.04475391265124    4.96727536114390
C         2.28697490794018   -0.82675141435504    8.35009445762542
H         2.02299846340707    0.18517504879143    8.64094587774925
H         3.24520037676249   -1.06185183535087    8.80500764365622
H         1.54939981066546   -1.49392111324803    8.78581203394577
C         3.16725452660844    0.06181051438694    2.86684486159965
H         3.03360050587034   -0.88340033340149    3.41835427582810
C         4.57459034968395    0.07281648258721    2.24057591062748
H         5.32557578669241    0.09708815191700    3.03362993460270
H         4.71584045554274   -0.84689244012156    1.66627999412623
C         4.75474307796140    1.28239922709563    1.32983964334538
H         4.62902365436961    2.18948635313835    1.92637768774159
H         5.76359551324097    1.28203865797157    0.90882861742451
C         3.71599346331887    1.26849551373832    0.21454312620801
H         3.85228289954289    2.13534978190162   -0.43634243262354
H         3.84747311030676    0.36934334109126   -0.39465745661565
C         2.31468907444224    1.28244766352081    0.81329646205382
H         1.56435874953910    1.25203733370816    0.01954566388761
H         2.17235216033618    2.20764913753456    1.37893384114178
C         2.11657840762060    0.09473638196661    1.74852284796330
H         2.18883128671918   -0.83562138180041    1.17854586962512
H         1.12326846260801    0.14523527395184    2.19789578372215
C         3.28148155143476    2.67267396897790    6.99061100596843
H         3.65865653711284    1.81128236303243    7.55802481001430
C         1.96226013537407    3.12754816374769    7.62700156177554
H         1.24198654659573    2.30739348626561    7.58701921199560
H         1.56404426196324    3.95026152255078    7.02885911993972
C         2.16651965932067    3.58157055597892    9.06817163915546
H         1.21420997517396    3.91187993121432    9.48955753853377
H         2.52285152396298    2.74054606795587    9.66923886720894
C         3.18652847111749    4.71363929662193    9.13310415912409
H         3.33796531310513    5.02170901127096   10.17029877380411
H         2.80671155135481    5.57386990081461    8.57766701981066
C         4.51018472396271    4.26447650701100    8.52287448274573
H         4.91744627912551    3.43799907212632    9.11127039108890
H         5.23294673340308    5.08295917100167    8.55419050162540
C         4.30709668985074    3.81061995905090    7.08164816750506
H         3.94193093966868    4.64173430880031    6.47388871318879
H         5.25337160290850    3.47525540836600    6.65146253162787
C         3.38492581595729    5.76670479485986    2.35844283007856
H         2.97429074105079    6.78480345735411    2.44159378519633
C         3.67033214620619    5.45969586894895    0.87994993569280
H         2.74026254395146    5.50439499935228    0.30842778635156
H         4.05007381195367    4.43844127155803    0.81129877680497
C         4.69250925428638    6.43317357649613    0.30350933924292
H         4.88612113968551    6.18941227232954   -0.74374898877105
H         4.28980877733563    7.44903047006320    0.34022949268628
C         5.99151236775721    6.37532011729229    1.10087311156901
H         6.71273208146893    7.08719692755893    0.69269892000373
H         6.42151571813683    5.37484462298472    1.01674139327233
C         5.72397509872197    6.68722780735434    2.56997142818052
H         5.34917173003072    7.71041282738069    2.65930247897013
H         6.65325971473977    6.62222356596478    3.14024994486446
C         4.69651407686922    5.71886601543157    3.14575416857614
H         5.08127699639367    4.69698224871723    3.11086940990682
H         4.49319586630820    5.95883171222651    4.19108381504236
C        -0.85782558644382    3.73157352070758    3.66688991492770
H        -1.42572923435753    4.57129973654974    3.24353857810466
C        -1.29259016193587    2.43826357002189    2.96508957035252
H        -0.68210851337812    1.62221791715054    3.35835338596371
H        -1.08443987509565    2.52415577647775    1.89628464368064
C        -2.77049467119827    2.14512353697702    3.19757786754320
H        -3.37413961485481    2.94487802448390    2.76037412852446
H        -3.04442362818057    1.21178421679893    2.70044627998163
C        -3.06708794057744    2.04763030661779    4.69047691413190
H        -4.13023027698067    1.85228928425175    4.84907572211127
H        -2.50358811727186    1.21463411127270    5.11626621296642
C        -2.66309262057315    3.34027316280249    5.39196404398540
H        -2.86181482540590    3.26224517963270    6.46342645284975
H        -3.26427082986159    4.16570959381421    5.00097788038143
C        -1.18454997293639    3.63310526949516    5.16239008178310
H        -0.90173598941046    4.56610792984320    5.65479193035401
H        -0.57501632383120    2.83366332201025    5.58927781031648

