91
CSD_code = REJWEL | q = 0 | S = 0 | Stoichiometry = C26H58N4Si2Zn | MND = 4
Zn        1.81180807746254    4.52263078457045    3.77766089807821
Si        4.09024699924145    1.85557558223910    0.10852371259230
Si        2.08926324777769    7.10947247488554    8.18378367683107
N         3.04956768147545    4.71739480383648    2.20425164162102
N         1.40452794442019    3.28630950576700    2.25940343621535
N         0.76651413160838    5.81387196896456    4.89297830816836
N         2.08588369588706    4.30900175494688    5.75698498300562
C         2.41336432282225    3.76455314977064    1.54770259406554
C         1.26325226404878    5.31033020673229    6.01204513858479
C         0.31184103873607    2.41630432638700    1.87978280960587
C        -0.61908034800395    3.09025848389799    0.85605780806001
H        -0.94490274138785    4.05489552512698    1.23797870692185
H        -1.49417310094088    2.46828535422950    0.68124764378803
H        -0.12342453991928    3.25704313005359   -0.09635831947340
C         0.74830447725489    1.03087374795094    1.37482965691443
H         1.06016729220477    1.05800917632285    0.33735023533557
H        -0.08302388670528    0.33366829002451    1.45732561913569
H         1.57180729138771    0.66242407671665    1.97991518294633
C        -0.48719781301038    2.20356006308523    3.17500345207047
H         0.13057947714746    1.68445932420298    3.90332836904215
H        -1.38502805209492    1.61829824049907    2.98856330290213
H        -0.77047827787450    3.16688713791437    3.59361962467196
C         4.25494992362113    5.46800029585016    1.92940699246511
C         4.43690483114133    5.95889247294369    0.48289773306144
H         4.82175237878745    5.17866417709621   -0.16586468267161
H         5.15183790424208    6.77946674639191    0.47392173180475
H         3.49246500698994    6.32874282502667    0.08933112265738
C         5.48751738412518    4.66265719381582    2.36981928600870
H         5.40512640842411    4.42181080546877    3.42752049447499
H         6.39591292504877    5.23996251962005    2.21070384740489
H         5.55373318406633    3.73356582939416    1.81435957004275
C         4.15499802877976    6.71504099464824    2.82410777110292
H         3.33199144988912    7.34344973314651    2.49256192939486
H         5.07633501074259    7.29243971958089    2.79248220164909
H         3.96132824466517    6.40911796767905    3.85020410206678
C         2.76915002525223    3.26428754951197    0.17941779540175
H         3.10932284914829    4.09804632185252   -0.42564304886630
H         1.86542892916594    2.89263298770316   -0.29431562836573
C         4.49350091558685    1.15829458530346    1.83968550111968
H         5.55575984204206    1.20666887394226    2.06062676126106
H         4.19418438707439    0.11796059197107    1.92662907970340
H         3.96979292255248    1.71706321118777    2.60972998397323
C         5.67298115181393    2.47399908279257   -0.77615721692176
H         6.20371977215185    3.24888498994957   -0.23324885951165
H         5.43893263174217    2.86660578125696   -1.76210892267212
H         6.36564987676519    1.64899772943391   -0.91565936405446
C         3.44590974864137    0.44966823795072   -1.02069392265466
H         4.27456654085063   -0.15689551434240   -1.37334876360690
H         2.93718415477317    0.83936395279269   -1.89804177786612
H         2.75782803749336   -0.21486063904478   -0.50870933880166
C        -0.41265671417821    6.88064083192686    3.14488917261069
H         0.55037883181709    7.11336088839941    2.69704362627181
H        -1.13263327353066    7.64437534236995    2.85865565751534
H        -0.74324421724781    5.91900641153380    2.76014595812085
C         0.12208298781265    8.20231697286783    5.17335685055944
H         0.20653211558250    8.22863884649101    6.25287405084268
H        -0.62994329660045    8.92636851003331    4.86616407272644
H         1.07936504376577    8.48928008511744    4.74583319677957
C        -1.63454358963005    6.38227653162191    5.24585311450430
H        -1.79049153213296    5.31928413728956    5.07489341561146
H        -2.42809622406107    6.93477668766830    4.74746373798801
H        -1.71823024820184    6.57585594051768    6.31194024571961
C         3.24632811981557    2.24701870841171    5.76825642337944
H         2.33375070914058    1.67181307280361    5.63328364277136
H         3.98957064508430    1.62351621475778    6.26019623144074
H         3.61760298205942    2.53664205682527    4.78743176868993
C         4.27888923594695    4.24809794639698    6.82729186538108
H         4.74724716911146    4.46168201546575    5.86883658518012
H         4.95613944619539    3.63783591751188    7.42104229219417
H         4.10676873463928    5.18970413858433    7.33696498649448
C         2.36127763843841    3.04692266005419    7.93787346025783
H         2.39582125730707    3.82976221231113    8.68794484021312
H         2.94204759719485    2.20482766334253    8.30945508347390
H         1.33393554412211    2.71556574003215    7.80208836746707
C         3.31453280271193    7.83663263583447    6.91365815049303
H         4.34312066069355    7.76672871383702    7.25515118316214
H         3.10830586879321    8.88501544962423    6.72077319336684
H         3.24321589005795    7.30944826226319    5.96707312078811
C         1.01029640289802    8.50226889370895    8.93627437598374
H         1.60477518454608    9.12177978211566    9.60084526181617
H         0.19108387202218    8.09507354865727    9.52241274685937
H         0.58038239339876    9.15996797807864    8.18739393481345
C         3.00480196107896    6.38367613567787    9.70161842169230
H         3.74746702061585    5.63388776788885    9.45103398116181
H         2.30511480554403    5.93253058530736   10.40027602384483
H         3.51971270723351    7.17870554993252   10.23358923318935
C         0.90395798874486    5.81310570635012    7.37961749277623
H         0.80149628356223    4.96400666650941    8.04794416793815
H        -0.07803625635179    6.27249844438877    7.32133529762184
C         2.95128973429204    3.50931364372705    6.59511540961029
C        -0.26669992938752    6.80355457272364    4.67301650001902

