56
CSD_code = REJWAF | q = 0 | S = 0 | Stoichiometry = C27H23FeO4P | MND = 5
Fe        4.65637619657173    2.60621098818499    4.43665550009811
P         2.88153247767826    1.43083491767032    3.78734856886964
O         5.20886505378153    4.94257662063434    2.77691596053667
O         3.46220114121108    4.42395482227062    6.36259673734787
O         6.01352368593025    1.55432780541822    6.79827563079727
O         6.66846434809030    1.25962462707316    2.82497529821678
C         0.59809097112303    4.14879016350503    4.53851614862181
H        -0.01613104778361    3.26498463047202    4.64070625231718
C         0.59862500248580    5.11214328391057    5.53589269317465
C        -0.17797514651132    4.90813846535757    6.80141989534221
H        -0.64918947502199    5.83583291476154    7.11967370458659
H         0.49370093470593    4.58535178258273    7.59789043841285
H        -0.94589792022216    4.14846384926079    6.67229844932815
C         1.35376031875511    6.26422665196069    5.35602122838599
H         1.36501295195440    7.01314221701570    6.13546802981678
C         2.08835418155350    6.47319520404457    4.19843515289876
C         2.88786663954865    7.72464779382405    4.00080820807759
H         2.98323732265610    8.27831998510139    4.93148441472342
H         2.40455269701663    8.36765202516361    3.26470720282740
H         3.88264334232841    7.48399413431940    3.63004261803896
C         2.06253252071388    5.50316687410163    3.20522959963696
H         2.61692412210623    5.65569216321271    2.29012798301411
C         1.33869564773356    4.33093701150807    3.37668815270042
C         1.29536873247554    3.33107576240024    2.29292741516446
C         0.66170735856922    3.66063552872511    1.09655552518515
H         0.21940635323831    4.64131066287909    0.99557139354732
C         0.59069461281083    2.75532232491054    0.05271293746445
H         0.09194274322813    3.03368360470815   -0.86411118064656
C         1.16136438118392    1.50018257039261    0.17212306237000
H         1.11259891180658    0.80270118467183   -0.65029883225669
C         1.81059215043640    1.15437973235085    1.34838297926569
C         1.86417727845216    2.06762133746754    2.41686131580010
C         2.49236403926321   -0.10152786045386    1.62463235757734
C         2.57250540751203   -1.19883198172162    0.78242944300835
H         2.10334209107876   -1.17427086195773   -0.18998186611980
C         3.25843689486381   -2.33694771799842    1.18550466240285
C         3.37618555899076   -3.51999433618186    0.27425042192291
H         2.56271758841404   -3.53940482193280   -0.44693092645102
H         3.37006304325165   -4.44841900288141    0.84078212897803
H         4.31601390548365   -3.46967473040102   -0.27645802977904
C         3.85429217388130   -2.35613283522842    2.43983368386897
H         4.38775250902341   -3.24214597671789    2.75552283649216
C         3.79149372202562   -1.27033326113660    3.30664938900816
C         4.44071748583313   -1.35929543010944    4.65181984327394
H         4.44661094546291   -0.38625690401678    5.14170112759836
H         5.46758341330731   -1.70888340729523    4.55582628817606
H         3.90589265598792   -2.06969124511079    5.28303454976998
C         3.10373683172079   -0.13711949341557    2.88966560270611
C         1.63235946624342    0.89981058589676    5.03299061583727
H         0.75873487919191    0.48589830246350    4.52674582261739
H         1.35057627692689    1.75258612415707    5.64876954469001
H         2.08434496587943    0.13832463839853    5.66894569249789
C         4.94492193481278    4.01519178901126    3.40069781006481
C         3.87930045649419    3.70010556495688    5.57596327206247
C         5.45447941713268    1.93206639066102    5.86710750309186
C         5.85295584860399    1.77132483114974    3.44859574304656

