79
CSD_code = REJWAH | q = 0 | S = 0 | Stoichiometry = C22H50N4Si2Zn | MND = 4
Zn       -2.03652971715700    2.55139340964116    4.42628617899858
Si       -6.05551527233948    3.87782115248977    6.85872481505572
N        -3.84428787635156    3.33264498741489    4.11396352101484
N        -3.44037048399999    1.79209907085116    5.62707033728618
C        -4.34836863950885    2.55056256022672    5.04677238722564
C        -5.10149354000843    3.60039020533881    2.03649127143777
H        -4.24903234650837    3.23226753843208    1.47033765683141
H        -5.65654706724457    4.30872667214605    1.42532317687475
H        -5.74624765365643    2.75518115390920    2.26741622571678
C        -4.60472049284933    4.26776969519412    3.32565466859708
H        -5.46990842503915    4.64488822858919    3.89166770737473
C        -3.70038681961917    5.45293649613152    2.98975828201849
H        -3.37571631810995    5.94504566972296    3.90344896212012
H        -4.22490061947302    6.17394070932606    2.36660285961677
H        -2.81921125366506    5.09552446706669    2.46170527990434
C        -3.70533971300009    0.84022500127318    6.67473713632655
H        -4.58203525499332    1.14034606519919    7.26720367986826
C        -2.49164808991155    0.80215065704978    7.60288655064502
H        -1.60124965480797    0.56805419803789    7.02304823829697
H        -2.62263873406901    0.05195490359608    8.37942300943128
H        -2.35016061106072    1.77293979933488    8.07194003351563
C        -3.95827113906523   -0.54970495277225    6.07724652505868
H        -4.81954143812212   -0.52644486280467    5.41301443051104
H        -4.13900857665736   -1.28061017709371    6.86239956173905
H        -3.08973014746076   -0.85641686765242    5.49875650365938
C        -5.78518849831004    2.57823261862172    5.45843176685285
H        -6.08590563137329    1.59035153899017    5.79924585887760
H        -6.40580063870810    2.81969458054914    4.59896348191348
C        -4.42856893202890    4.78902048726662    7.24075434231952
H        -4.52835593272384    5.46489309487835    8.08511289803769
H        -4.09799637949323    5.36974292911362    6.38506675906702
H        -3.63821490117774    4.08006838477545    7.46878983793835
C        -7.38832228218416    5.12362493584603    6.29077228448676
H        -8.31098863854761    4.62186927277078    6.01447654796469
H        -7.06256835930949    5.70712052392361    5.43479028151496
H        -7.62412714568687    5.82146777579151    7.08797757064400
C        -6.68429652306129    2.98842361077105    8.42886138369234
H        -6.99614030980790    3.71059111513877    9.17694929530325
H        -5.91615150340525    2.36657740577089    8.87927152594593
H        -7.53890919018176    2.35288935802541    8.21467074160932
Si        1.98248731173834    3.87784496019010    1.99386060624142
N        -0.22877074543834    3.33264292147597    4.73860899534707
N        -0.63268818277325    1.79209281575515    3.22550759842479
C         0.27530932576830    2.55055968320056    3.80580190564855
C         1.02843300753500    3.60040507682145    6.81609038059420
H         0.17597375249799    3.23227784545833    7.38224381997381
H         1.58348923000933    4.30873916658026    7.42725921129997
H         1.67318578683577    2.75519825533669    6.58516153430757
C         0.53166387784277    4.26776815321322    5.52691618896904
H         1.39685228857051    4.64488875169464    4.96090343619121
C        -0.37267126734755    5.45292974725007    5.86282211615402
H        -0.69733625695917    5.94503639844560    4.94912881431265
H         0.15183916008438    6.17393840378254    6.48597607544801
H        -1.25385082158718    5.09551877270922    6.39087085644232
C        -0.36770668391293    0.84021523708929    2.17784747193007
H         0.50896585186063    1.14036263063466    1.58535686768773
C        -1.58142754638420    0.80209114748922    1.24973857617509
H        -2.47180704507048    0.56796538443709    1.82959556561555
H        -1.45042492861905    0.05189795007025    0.47320263165122
H        -1.72295942536812    1.77287230196303    0.78068284948471
C        -0.11472558995303   -0.54970130187597    2.77534691300729
H         0.74656105544951   -0.52640588992575    3.43955647600104
H         0.06601663616976   -1.28060818073398    1.99019612371795
H        -0.98324092246355   -0.85643769846522    3.35386458285795
C         1.71212884720273    2.57824032569470    3.39413488831923
H         2.01284422766519    1.59035824903913    3.05331939080146
H         2.33274063297324    2.81969437428530    4.25360500640652
C         0.35553465135806    4.78906156521542    1.61188532032837
H         0.45534473497955    5.46495529804831    0.76755828946409
H         0.02499927688913    5.36977471824730    2.46758121605281
H        -0.43483807029424    4.08016119550439    1.38383599455227
C         3.31531978052785    5.12360178092393    2.56183626559361
H         4.23798396273700    4.62181381750939    2.83808028873656
H         2.98960129690794    5.70708384552543    3.41784110595675
H         3.55109762647021    5.82144518888745    1.76462228058653
C         2.61119100452965    2.98841185462068    0.42371519881854
H         2.92305309283300    3.71059863139281   -0.32434098000037
H         1.84303039715618    2.36659114610288   -0.02672150224687
H         3.46579542026256    2.35286206351583    0.63789406389878

