50
CSD_code = REJXUA | q = 0 | S = 0 | Stoichiometry = C16H23B7NO2Re | MND = 9
Re       14.59736573581761    8.88713387257661   10.84736605876657
C        14.29938124270251    6.72059825518776    9.94748239627287
C        12.71647103978866    8.45497318302423   11.93143712428059
H        12.43170835561456    9.33715983881121   12.50901000527238
C        12.91773137199687    7.12208778085079    9.51517757421152
H        12.76558534694722    7.26063138026532    8.44761430693965
B        14.29691339369629    6.12996575974925   11.39546981758119
H        15.25192754089776    5.56906988290641   11.79242433843315
B        13.28378682712202    7.17013678877113   12.62901253351128
H        13.63468604206668    7.20123002752731   13.75300012905407
B        12.07973574405036    8.19898085779359   10.49263884719714
H        11.39809457127991    8.99722643769452    9.94699455544491
B        13.08841247502641    5.52025733041775   10.16112433133371
H        13.19082331486409    4.58117819626563    9.46457296255069
B        11.58696789104503    7.18651843259196   11.96693922926996
H        10.62845484252808    7.34309158199591   12.62959061999973
B        11.63001379555744    6.42961691047535   10.42519264267266
H        10.66956113017162    6.06397423205598    9.84867284774358
B        12.62114311181471    5.73200788622794   11.84630763856917
H        12.36811161681890    4.77473517037038   12.48533763197190
C        15.34248553371090    6.44810164403679    8.92375330063387
C        15.02606179973234    6.10744765636614    7.60809577432167
H        13.99618890854724    6.04730284908766    7.28632809395340
C        16.01512157796151    5.81078807494755    6.68742743899542
H        15.73867450441178    5.54515778632900    5.67628640634250
C        17.34833000834103    5.83814065450098    7.05632387938525
H        18.11840247757307    5.60484275429914    6.33588008241468
C        17.68055415917001    6.16065325681866    8.36308828145650
H        18.71618092816463    6.17784070232247    8.66921400672902
C        16.69392660934397    6.45985293105238    9.28037623154576
H        16.97019753467599    6.71370093238104   10.29316962363559
C        14.48938849503032   10.74930420741738   11.34040622269569
O        14.38984638007252   11.85729555717554   11.63083781005529
C        16.35560193975176    8.81175801095578   11.64227002767755
O        17.36657730086766    8.74434291771251   12.19255597480614
C        15.46788113908602    9.39086097681177    9.13158835217866
N        15.86132870433115    9.65967900404057    8.06584868429439
C        16.51721150113401   10.06543129129638    6.88413625928671
C        16.39433066220759   11.58798320211126    6.77962479233655
H        15.34906093156492   11.88285770098963    6.73548238086053
H        16.89602954645633   11.93701453113064    5.88138664738361
H        16.84894755628202   12.06103250197613    7.64608455098508
C        17.98292216654293    9.63794431942437    6.99133157987277
H        18.44613253715182   10.10252480128673    7.85781576410064
H        18.52049319526072    9.93954127759215    6.09666623986921
H        18.05145501165408    8.55851776283870    7.10028773465740
C        15.83162368961365    9.37496529791417    5.70323886822186
H        15.89692041893485    8.29494730946162    5.81279257952754
H        16.31575890484975    9.66432508227806    4.77482448024852
H        14.78339048776855    9.65997119988701    5.65391234045206

