41
CSD_code = REJXOV | q = 0 | S = 0 | Stoichiometry = C13H23BrCuN3 | MND = 4
Br        3.97421813133009    9.02054629905730    3.12212226314679
Cu        5.25050004044428    7.22860771388249    2.67055773217472
N         7.12929279340627    6.78015197881003    2.44243546651752
N         5.38608465152597    5.69332850159543    4.29694068033061
N         3.94500312908200    5.62246487326294    1.77587521136883
C         7.81816628977053    6.97956034066815    1.31821966219768
H         7.42129068816683    7.72383073055628    0.64281056559058
C         8.98515812117275    6.30313709342487    1.02240777443552
H         9.50451751324605    6.49832172076509    0.09790943908033
C         9.47570448788264    5.38479644645484    1.94034026833026
H        10.38605442269649    4.83859457350894    1.74819350076704
C         8.77167455131063    5.19272023134906    3.12153892639098
H         9.12568058851324    4.49904174498321    3.86915748473757
C         7.60684311946302    5.90681530870614    3.34083077285094
C         6.80630872489848    5.77308163368026    4.60714414429252
H         7.15562416188738    4.90920172751887    5.19537618087264
H         6.96440265248514    6.67877446083520    5.20336094613582
C         4.56181050540027    5.98537853670998    5.45523049874155
H         3.51185649752434    5.96646247595355    5.17419768217838
H         4.78659493391638    6.98808977211209    5.81463563557789
H         4.72508977228680    5.26480963422387    6.26912284426496
C         5.03977953408971    4.42987657547788    3.66280211780155
H         4.85921457248903    3.64058873466385    4.41014639091560
H         5.88354385518213    4.11557374874833    3.04253996356516
C         3.79437518389187    4.57336544144266    2.78174586232037
H         3.58631954825576    3.59737257947984    2.31856145348282
H         2.94498780934163    4.83050121055955    3.41668164331627
C         2.65703381788656    6.25323262381835    1.46148338357707
H         2.84764043757534    7.10988287803203    0.81519274815326
H         2.25478174179707    6.65160554409609    2.39547467712764
C         1.61505233403777    5.34576764812725    0.80949401159584
H         1.94194450496315    4.99801829975896   -0.16763100190442
H         0.69583822188170    5.90931903546851    0.67583455704143
H         1.39547262764153    4.48054967099882    1.43134532522865
C         4.64831270708687    5.12262116844863    0.59392458484803
H         4.10894894572893    4.27366480990873    0.14488376205615
H         5.62129886333827    4.74844127094770    0.92740884581268
C         4.87424867568740    6.20049578434033   -0.45916595614205
H         3.97275478557489    6.39299627439649   -1.03431613515562
H         5.65643318840711    5.88603774627799   -1.14627150126607
H         5.18204286873362    7.12707315694917    0.02185758764246

