52
CSD_code = REJXOU | q = 0 | S = 0 | Stoichiometry = C17H23B7NO3Re | MND = 8
Re        4.22129803529509    3.00274252387472    4.09702349470173
C         6.10557028151981    1.52828964975776    3.57731707195292
C         6.22692092399999    4.47532630245050    3.28271670383335
C         6.83111804248573    3.71765612834682    2.14785001889523
B         8.28845031870317    3.02607625580721    4.34640784254024
B         7.85096642772991    1.51560860435934    3.46507523070661
B         6.88450702044011    2.09302774805435    4.83398044971376
B         6.88107758746847    4.04680081809049    4.65234265781867
B         7.95529731460679    4.39895220823862    3.26230047261596
B         8.28921277800901    2.86307815408122    2.50030476587415
B         6.67609265336846    2.06855153687634    2.19791112557175
C         5.51837193576441    5.74685900531007    2.98730382927984
C         4.81800858588002    5.93493344653771    1.79272078016665
C         4.15166177696342    7.11648572437694    1.53078740361465
C         4.17179010542494    8.14918065660939    2.45138677667813
C         4.87103184354034    7.98615988915210    3.63559195791503
C         5.53656700438172    6.80547923473259    3.89913819245317
C         2.99576371260023    4.51538538240529    4.21988714468989
C         4.61923095705345    3.12755388404524    6.02173363331684
C         2.85506435634745    1.66322340313242    4.43288359030500
C         3.85806516976808    2.82783541057132    2.11375744031088
N         3.55818064348687    2.68162521605876    1.00240092735802
C         3.13927076572900    2.48611644853462   -0.32845743768609
C         2.46495352364696    3.77618172668395   -0.80442311481461
C         2.14729333962813    1.31959680866496   -0.32845004759406
C         4.36761138770465    2.16030788049886   -1.18104492472060
O         2.29866758538533    5.42427898461286    4.27439655319473
O         4.72628798885161    3.21203297343513    7.15389976982882
O         2.05899483803469    0.85680819177229    4.62359210021437
H         9.23938868493407    3.06689831668150    5.03981535242178
H         8.37908488696094    0.46844650689382    3.50484668763867
H         6.78029948545683    1.59523123211716    5.89686385743534
H         6.73145635530014    4.69380610503692    5.62451692481684
H         8.51006166978068    5.40863275933181    3.04400611208912
H         9.14940580106877    2.86204042038724    1.69714583297058
H         5.66969426177336    0.52550525578079    3.60365709377955
H         6.74359041181944    4.18183702656253    1.16979291527236
H         6.46131345548698    1.51940452620623    1.17434223699176
H         4.77435281605309    5.13841768323641    1.06380487786553
H         3.61050807060533    7.23133591680596    0.60190958046158
H         3.64832726273606    9.07118780290320    2.24820310382000
H         4.89962577317994    8.78714628560697    4.35984317048270
H         6.08223708186682    6.69995986758403    4.82408121578333
H         1.63680185793862    4.03527168628085   -0.14870732038849
H         2.08597641121964    3.64056657543578   -1.81372498320560
H         3.17299856856268    4.60164170945939   -0.80767820261309
H         2.62252545919771    0.41833716242273    0.05133693205061
H         1.79926804336947    1.13310973327372   -1.34075193927025
H         1.29161462388477    1.55035723050201    0.30181317554110
H         5.08253285610170    2.97959726627199   -1.15405668437286
H         4.06570775331296    1.99531335375729   -2.21168010388360
H         4.85890150557243    1.26360138038962   -0.81121424442231

