69
CSD_code = REJYEL | q = 0 | S = 0 | Stoichiometry = C29H29B7MnO2P | MND = 9
Mn        1.47852973786013    1.81075477948128    5.36882093520699
C         0.33838972457501    0.88873374096295    7.07830953964875
C        -0.02722612648402    3.33038630793482    5.31140274392885
C        -0.83504160444793    0.85225770689558    6.14724557775775
B         0.36933337140435    2.22269339240580    7.90993837738570
B         0.11981523009518    3.75480133906995    6.80744931138009
B        -1.00434393813775    2.10476178890331    5.05981792805109
B        -1.18394392256734    1.27613047867911    7.79656636498407
B        -1.53825982407904    3.55111823076665    6.07696856535310
B        -2.09724618768391    1.98298091922374    6.50692135460348
B        -1.19689196836975    3.03965901712453    7.75266726527471
C         0.98023218669282   -0.38255296144117    7.51707439423460
C         0.31142926648569   -1.60615622606430    7.48823854298930
C         0.92087766301015   -2.76430489050842    7.93631580200821
C         2.21018950808452   -2.72967229361870    8.43444117986928
C         2.88351477930125   -1.51977466124643    8.48725230572206
C         2.27737523799717   -0.36411798546948    8.03791264934316
C         2.23082404852415    0.24707915057409    5.04266824619129
O         2.72244654683285   -0.77065859652701    4.79344036644236
C         2.94166033741181    2.35791680279332    6.18518602449656
O         3.90338066047581    2.71077323373972    6.73307082816236
P         2.05345688130573    2.54635715700626    3.29174996291986
C         0.70643107230119    2.33545219914746    2.08932826636881
C        -0.05401019661874    3.39045012761153    1.60015126935830
C        -1.13157284768854    3.13591382813812    0.76916035251059
C        -1.46089332873803    1.83409808590860    0.43165248055626
C        -0.71565826933732    0.77673326814084    0.93229768191720
C         0.35760810203407    1.02489846362912    1.76508733181213
C         2.60794844250945    4.26802585686118    3.02654906591250
C         2.86755671851647    4.73607912990462    1.74095845673042
C         3.32525639733880    6.02680359390960    1.55555795996849
C         3.53696099104221    6.85416650155316    2.64786620955893
C         3.29548625526600    6.38633289405425    3.92853643398716
C         2.83447180563069    5.09521754709072    4.11971898843117
C         3.45064936767655    1.71083633785557    2.45014081079113
C         3.46780729577910    1.38937560380929    1.09769111988384
C         4.59069694889880    0.80189086110257    0.54074789819736
C         5.70225920979385    0.53897845988338    1.32268096293920
C         5.69311086315078    0.86486562004595    2.66989982371820
C         4.57319064782369    1.44788818790523    3.23138086568888
H         0.17023866531697    4.04333342993854    4.50310946361918
H        -1.13353105367346   -0.12585313220414    5.77708679758517
H         1.07095774686952    2.30339992246453    8.84840392076157
H         0.65952104656632    4.75899723148213    7.10486924655492
H        -1.43657562738346    1.83753339940842    3.98812161229171
H        -1.57862067764593    0.48467698462445    8.56616202096890
H        -2.19772472941905    4.44942939914259    5.70137989285768
H        -3.21548439059162    1.63149283386775    6.39396959429217
H        -1.67575087085423    3.62882988563001    8.65202899114703
H        -0.70551560010778   -1.66998130931630    7.12745225351491
H         0.38000351252156   -3.69922922583657    7.89698829266691
H         2.68532310404152   -3.63561285203950    8.77998238055858
H         3.88936547543189   -1.47769654667312    8.87790478616969
H         2.81630709945973    0.57228704175898    8.07406640237646
H         0.19403098620796    4.40847720573058    1.86766302456500
H        -1.72045405983616    3.95805043268956    0.38964056362012
H        -2.30487638171824    1.64104443624845   -0.21377270565494
H        -0.98013212684500   -0.23962575106639    0.67929743395450
H         0.93854876222100    0.20852995628799    2.17872726475764
H         2.71088566786843    4.08772712676386    0.89005455700391
H         3.52177786096858    6.38848828319043    0.55681672045429
H         3.89544154082993    7.86176058401703    2.49820849234134
H         3.46738808856752    7.02665322384612    4.78063219046424
H         2.64717683745583    4.71927774302547    5.11762360702441
H         2.60313555531857    1.58201766176972    0.47767250818542
H         4.59506719751221    0.54751429271196   -0.50925295550091
H         6.57390710561568    0.07737036216935    0.88319251196134
H         6.55751189489776    0.65926574561673    3.28291128896548
H         4.54597628682090    1.69786863757622    4.28619559830620

