48
CSD_code = REJYAH | q = 0 | S = 0 | Stoichiometry = C14H23B7MnO2P | MND = 9
Mn       11.04306798734489   -1.86707233677323    0.12419710691095
C        11.41868837096603    0.35519693870892    0.19938077137996
C        12.02485605297352   -2.00082219268342    2.01944010539073
C        12.86703254816017   -0.01586353298452    0.32539072497775
B        10.73902186788516    0.50927185996454    1.60670942752446
B        11.13057011411921   -0.95367624963646    2.75227818983165
B        13.24186096567400   -1.39086474676481    1.19764336983970
B        12.33639844687645    1.33076501176463    1.28888465833140
B        12.94781455286986   -0.92170269874719    2.96213565845591
B        13.56487490276140    0.26432691885616    1.88256092900654
B        12.00148401763231    0.58762086283891    2.85053814232133
C        10.92594523272504    1.01693554641895   -1.04113253651317
C        11.76877429951798    1.73233195261946   -1.89140063178224
C        11.27582411240992    2.36628554064198   -3.01768026535269
C         9.92736351998623    2.31111925374681   -3.31838084434195
C         9.07256287407932    1.61976107360425   -2.47489429168792
C         9.56383618901895    0.98441154808677   -1.35240213519326
P        11.24664479961806   -4.13647387146535    0.01804233879920
C        12.90820788267555   -4.91807824521006    0.04310731605270
C        10.36419863174375   -5.11862447552764    1.29529314434928
C        10.54119780407259   -4.91864823769941   -1.48682186602065
C         9.28676061312504   -1.98589774514366    0.22907138626180
C        10.89861178057228   -1.76270484233028   -1.63082592603763
O         8.13505481779651   -2.12180230073854    0.27932493879307
O        10.79258579822135   -1.73165822945040   -2.78359330758123
H        12.06711698432972   -3.03677915324288    2.36664363036499
H        13.49399817958638    0.17167686178594   -0.54327833769461
H         9.68900845391521    1.02856942668120    1.68819475450543
H        10.31901760301397   -1.29409629930415    3.53470604216017
H        14.15383707126353   -2.04633950395019    0.81788670322278
H        12.49862645483139    2.43802094741838    0.93997675123940
H        13.50380530801090   -1.37371826287743    3.89506838659836
H        14.65958154976948    0.69428982811925    1.93979016578887
H        11.89138060980185    1.27572078048894    3.79903750234597
H        12.82482526505644    1.81657149884107   -1.67700664658486
H        11.95302352157862    2.90883513477096   -3.66201909265379
H         9.54553346130973    2.80325587310184   -4.20037426758665
H         8.01673012010144    1.57216440430230   -2.69643041788726
H         8.89111730659997    0.43675550957285   -0.70689449197188
H        12.81322401337426   -6.00022928579463   -0.04471181777814
H        13.42524314803302   -4.67171368437636    0.96814886034372
H        13.48878098575458   -4.53567643674420   -0.79504942173591
H         9.31099888525387   -4.84257618354166    1.26576719604523
H        10.75120367842253   -4.90194461800387    2.28795287634653
H        10.47118169021302   -6.18334249880231    1.08917566915810
H        10.60194313030721   -6.00502662994547   -1.42641714623233
H        11.08167371058510   -4.57053780022382   -2.36522252568445
H         9.50001068606373   -4.60971671036903   -1.57831077602245

