81
CSD_code = REKBOY | q = 0 | S = 0 | Stoichiometry = C41H33CuN2P2S2 | MND = 4
Cu        4.62227835349463    4.84871999000654    2.04715930256714
S         6.37571677199615    6.57487929726829    1.26022679010067
S         5.24343757109897    5.40839482557061    4.19810209713532
P         5.62547652332818    2.90380793957515    1.45469700458706
P         2.76154620234009    5.45937397758402    0.98564715312100
N         9.90270292604790    6.10231219437204    2.08855899659157
N         8.47369341760826    4.99326496400864    5.72050917771955
C         7.41253553087518    6.03411474131522    2.60312465076699
C         6.89710682707092    5.60086509652366    3.79948190779187
C         8.78137164353060    6.06519122710368    2.34477169926396
C         7.79414757197250    5.28161505322283    4.84253420717451
C         5.68501414067207    8.09116644299466    2.00740049437686
C         5.01221734598493    1.39298266980530    2.25979460301019
C         5.60923695522421    0.15341118443717    2.04488109113970
C         5.11210652246728   -0.96538719096503    2.68568191168971
C         4.02880901098626   -0.85337088529889    3.54490584390429
C         3.44501946296971    0.38128863875870    3.77397472289722
C         3.93791805138674    1.50506091056623    3.13492169345947
C         7.41531556501704    2.73482527552736    1.73081470745560
C         7.80652535170535    2.58973306651557    3.06206237665569
C         9.14676154236225    2.56310125057922    3.39193683647035
C        10.10415874075176    2.68756917039548    2.39751397148404
C         9.71819389971742    2.83136898639797    1.07590190915527
C         8.37710903201329    2.86233348575287    0.73644867701741
C         5.39908133279315    2.61371264145271   -0.32532756725273
C         4.76094925498893    1.50102983133437   -0.86082013045754
C         4.55454097146539    1.41776643132225   -2.22665774608063
C         4.98271685212928    2.43508849422716   -3.06261332950746
C         5.60468147292971    3.55377745660823   -2.53136928406391
C         5.79483024021076    3.65312337355926   -1.16730215607847
C         2.85927096741095    5.51487968544402   -0.82918119038989
C         2.15490502739569    4.66832768280718   -1.67647756513466
C         2.32740582798498    4.76739918599160   -3.04579875551978
C         3.19625780056940    5.70527748954795   -3.57687529191587
C         3.90902582090083    6.54453514888031   -2.73450659559599
C         3.74891946307563    6.44351826066647   -1.36716670768106
C         1.45719802163648    4.24058947600966    1.31122801983061
C         0.21506491806353    4.55750096340366    1.84728818207211
C        -0.68758793187850    3.54627043871073    2.12854696422212
C        -0.35679950267423    2.22354508367118    1.88490223922040
C         0.88547504882840    1.90295910745764    1.35847245227212
C         1.79081122135356    2.90691741129874    1.07853549128417
C         1.98497160128414    7.04835964265593    1.40715918399189
C         2.17537476953130    7.49838485842020    2.71180737849744
C         1.62292651856059    8.69849781507366    3.11798519661988
C         0.88706398191277    9.45637251540484    2.22058807337367
C         0.70128506564638    9.01274880755841    0.92048739403100
C         1.24703229977575    7.81039611431578    0.50778435190228
H         2.61021828586766    0.47100520245129    4.45316305453563
H         4.90013864492746    8.44824340898245    1.34740994230433
H         6.47710498835718    8.82928870601766    2.09359999325471
H         5.27102790907046    7.85110398309253    2.98253049409395
H         6.46116611391774    0.07697655280079    1.38247114649246
H         5.57193107604504   -1.92860843148764    2.51919968460811
H         3.64632320862626   -1.73162912969014    4.04369724985023
H         3.50019669473205    2.47976590314436    3.31547462306131
H         7.05139062428585    2.50509823554416    3.83467152744184
H         9.44221488525487    2.46657521013701    4.42546642450731
H        11.15169114584657    2.68381871678895    2.65564062556836
H        10.46506626022186    2.93420368096680    0.30306451057533
H         8.08218793030399    2.98284693957170   -0.29640833038752
H         4.42560749135286    0.70267702057966   -0.21313362685845
H         4.05833509418470    0.55146616176435   -2.63959711669256
H         4.82549286532129    2.36034479205071   -4.12824681496756
H         5.93173489762616    4.35260075374894   -3.17973798512899
H         6.24762236873536    4.53937860208852   -0.73954196401030
H         1.46926178031418    3.93858954912960   -1.27038743084438
H         1.77541241427238    4.10967997562789   -3.70114306717935
H         3.32166704820248    5.78023081118290   -4.64684452856959
H         4.59324871932363    7.27266711562897   -3.14461299961147
H         4.31380932272455    7.08319733677105   -0.70205749450960
H        -0.04280727109919    5.58840864514232    2.04462677839955
H        -1.65367515963264    3.79312153770817    2.54366185221551
H        -1.06491802685215    1.44023701514118    2.11055372222686
H         1.15057983967768    0.87159867234075    1.17706465689235
H         2.77028494971933    2.67255508140086    0.67617200349825
H         2.76288897900222    6.89710480350892    3.39593799630907
H         1.77055704180300    9.04620763673113    4.12954387274387
H         0.45956948027758   10.39734532387038    2.53351983074587
H         0.12780373287144    9.60716714423913    0.22427005697089
H         1.10416665833904    7.46253281721547   -0.50596911807805

