83
CSD_code = REKCIV | q = 1 | S = 0 | Stoichiometry = C31H45N2O2P2Ru(1+) | MND = 9
C         0.98382690733200    3.17008016900866   10.35366202457132
H         0.80585410794708    2.14934318572503   10.04438608154945
C         1.53237909252812    4.20934729232446    9.54800910836853
H         1.84759260429664    4.12578691974141    8.51816054792823
C         1.79818902347553    5.31524752331914   10.38860832944919
H         2.27482769147918    6.23871111975818   10.08872291533500
C         1.41684555637678    4.97133347601153   11.70851590269769
H         1.61534058067649    5.57240244877246   12.58388020839941
C         0.92114951614085    3.64070540759306   11.69175320547003
H         0.66857266726162    3.03420925566446   12.55036349675721
C        -1.58904158438166    3.65387219353861    7.17763427795366
C        -0.58594790668887    2.50136332009591    7.13759689738650
H         0.26802617781773    2.69748869240529    7.77757442297673
H        -0.22112922200033    2.37575145305390    6.11991576363400
H        -1.04385143242193    1.56223460855296    7.44080982037192
C        -0.96764702811051    4.91819239629064    6.58769818398446
H        -0.61351793164964    4.72659612745696    5.57707455401306
H        -0.12895448390692    5.26004053600335    7.19324826263970
H        -1.69389004654112    5.72663543627020    6.54738233068405
C        -2.83901314850166    3.24681141643258    6.39163313308277
H        -2.52891879697259    2.77227841285032    5.46259554174864
H        -3.44966228482334    4.10478154408043    6.12505458299162
H        -3.45203379275578    2.53461480098790    6.94202318457607
C        -2.11460708195439    5.58660684550413   13.56054087813258
C        -1.64756021138565    7.03806071195589   13.47007050224923
H        -0.75993584733840    7.12227728321157   12.84400803628856
H        -1.41144153129710    7.41663220109245   14.46228415372360
H        -2.41913703204088    7.67145026142854   13.03861277416816
C        -1.08509855215000    4.74811266178232   14.31746783538223
H        -1.04945888253587    5.07014045552739   15.35646162072132
H        -0.09419983582275    4.88127584958236   13.89727447919851
H        -1.33320756395958    3.68780342985649   14.30615281018551
C        -3.45840909284960    5.50082895838497   14.28832412866364
H        -4.17520468792641    6.22447021764459   13.91029108747099
H        -3.29973294413396    5.72962646128991   15.34049293243459
H        -3.89204560294987    4.50502329985796   14.22793723357521
C        -3.66513460608872    5.91463731089405   11.08168170603099
H        -4.40898848986466    6.06240568682337   11.86849213069934
H        -3.28341962876882    6.89518432325842   10.75017120175994
C        -3.46517304188597    5.18896967990793    8.80733157571597
H        -3.08897247370277    6.20178393591143    8.58204567200677
H        -4.08089475173583    4.82947829404708    7.97941814561679
C        -2.80102963446484    2.52152390107544    9.66565427594090
H        -3.89942867229422    2.58722703757456    9.58331359625379
H        -2.44921757340414    1.67318416626786    9.07468168383374
C        -3.02292238928005    3.25758752904058   11.93834246578990
H        -2.85363088240146    2.90290350950866   12.95704116570715
H        -4.10600028058577    3.31498087871147   11.74189656740697
C        -2.46548700567177    0.95798969428295   11.48389383403087
H        -2.00359268041142    0.32295726990206   10.72456849820062
H        -3.52209228341561    0.66555389630007   11.58280752987664
C        -1.74731549504074    0.76027898882458   12.79171269484416
C        -0.36394850106176    0.63391016514143   12.81113379374244
H         0.17937591323735    0.62130631583639   11.87801350548248
C         0.31589699716443    0.50091802521576   14.00912745881085
H         1.39076887038928    0.39770804977445   14.00967014237031
C        -0.38206065143580    0.48900788520250   15.20554280001064
H         0.14667807692859    0.38364537767526   16.14000207876041
C        -1.76229154839417    0.59439977842549   15.19628183795337
H        -2.31350852634277    0.56720635836765   16.12376478094684
C        -2.44037727839710    0.72914381405467   13.99625843958622
H        -3.52008279600790    0.79141485272654   13.99728892179199
C        -5.66421051623279    5.45733669066470    9.75982528050477
H        -5.77293811943829    6.43835064864366    9.27566030385734
H        -6.18003700858589    5.48965808945994   10.72271776399736
C        -6.27296477846293    4.37713361801262    8.90548637588621
C        -6.48612607490306    3.11235965848708    9.44189373573484
H        -6.27372283854516    2.93599742136190   10.48720367849139
C        -6.99058307795320    2.09076014964985    8.65742006278855
H        -7.15863107424356    1.11428083538709    9.08648913206768
C        -7.29057952103234    2.32345274762285    7.32519252872995
H        -7.68862075440512    1.52863751076858    6.71375792183727
C        -7.09163786067083    3.58206256940107    6.78483413232922
H        -7.33559255055435    3.77197269529113    5.75092568271432
C        -6.58159593189576    4.60222033222430    7.57030236054045
H        -6.43729123603987    5.58576087673887    7.14546055949108
N        -4.25581165793298    5.13680077669209   10.01711560628855
N        -2.34442585348727    2.35156584486621   11.03151807839606
O        -0.84386448799200    6.85702940600494   10.50251412977332
O        -0.75872910078718    6.49192740140094    9.22988975936251
P        -2.03166062280427    4.04636910074056    8.96294292977049
P        -2.27563352446071    4.93599009618264   11.80288360284637
Ru       -0.40945147687724    4.92259043259705   10.39740862265805

