78
CSD_code = REKCOB | q = 0 | S = 0 | Stoichiometry = C25H49ClP2Ru | MND = 8
C         6.35454799639062    5.00637079852834    0.11626451873616
C         6.41518538464527    4.91935781719727    1.55057871323230
C         6.50018155454919    6.23251271407602    2.07385752745990
C         6.49100825164520    7.15645495055740    0.96596071095540
C         6.45463779824540    6.38156824774301   -0.24033077163909
C         6.51185382843358    3.81026406782185   -0.77510396167673
H         6.53682970707373    4.08973646660376   -1.82594531886608
H         5.69538067197057    3.10426497114810   -0.62101874078306
H         7.44678688771387    3.29794923587521   -0.53674159068166
C         6.61355350791602    3.63317000315770    2.29194280751773
H         7.55994625306736    3.18220776462607    1.98441152390891
H         5.81657700188992    2.92424420836343    2.06466283273722
H         6.64331761981095    3.79201149430637    3.36776264585135
C         6.92876026945364    6.57894743899041    3.46959646593107
H         6.49563363124030    5.90502027992211    4.20547187929359
H         6.66315246706119    7.60038515602014    3.73336866505825
H         8.01698480519355    6.49221325210045    3.53243748562679
C         6.97263991651266    8.57732731492916    1.04768332581426
H         6.80499452800429    9.10738113728574    0.11333495790248
H         8.04743824759771    8.58016980121123    1.24784626987956
H         6.48536724954871    9.13469746689896    1.84487035191496
C         6.82388668498985    6.91738662488300   -1.59169219795828
H         7.91358931181256    6.98463965295420   -1.64989581051263
H         6.41892668053602    7.91273070480169   -1.75879447742279
H         6.48751123951731    6.26738748047878   -2.39618095315284
C         1.30561318995571    6.98807839233786   -0.09040644963017
H         1.36945832294610    7.97636047277356    0.36965402812569
H         0.61617652669504    7.04167196345077   -0.93502862015934
C         0.82566713297990    5.95099005204140    0.92718434280697
H         1.18568401445691    4.96632527060227    0.61926459355796
H        -0.26862364987123    5.91987337479392    0.93577332973469
C         1.30975468488806    6.20530261375918    2.35583787826969
H         1.29471601237754    5.25024905640208    2.88828101680688
H         0.64425651480405    6.89995226895663    2.87205047371826
C         3.38411296324295    6.34257572014658    4.30300907448805
H         4.31276422135857    6.86896243102767    4.55333881523290
C         3.65895788542179    4.84319329642554    4.37958914603873
H         4.12526870483161    4.58870895721137    5.33109858074041
H         4.31781729728511    4.53405509182674    3.57138498615140
H         2.73902493545191    4.26984583534220    4.28944826553485
C         2.31886084651973    6.72669596298123    5.32725581718066
H         1.36504137199920    6.25767480331085    5.10085218227932
H         2.17670466535010    7.80174670835115    5.38704341897664
H         2.63535537253863    6.37932516365886    6.31085427656094
C         2.85419830152099    8.70054288964584    2.59733583020614
H         3.06435611736013    8.99606344251352    1.56274961719453
C         1.49760284352974    9.29018956831798    2.97581754125974
H         1.17621696466634    8.98122101464228    3.96633666518753
H         0.72397441875545    9.01942439222348    2.26128070129272
H         1.57894586900660   10.37747417152787    2.97705555136433
C         3.95703203947662    9.30602028216336    3.46077968892887
H         4.07037584396694   10.36706412392235    3.23979387327569
H         4.90142155342589    8.80922131973452    3.25251926037034
H         3.73730529442105    9.20488843219897    4.52066981272118
C         3.37117396299066    7.94969971560088   -1.86489559114407
H         4.23003329033039    7.59321867412425   -2.44381928867286
C         3.82090026904420    9.15281878925330   -1.04113896166697
H         4.36850080201869    9.86302060785636   -1.66002769738126
H         4.46480943287203    8.82283036364630   -0.22499722514269
H         2.96083582694362    9.67179324670304   -0.62201083657049
C         2.27438564563400    8.36559537941694   -2.83879164590467
H         1.38771650515147    8.70942692198336   -2.31206239363562
H         1.99567348199023    7.55472324917591   -3.50462437263690
H         2.63799128214347    9.18986533406280   -3.45291441531115
C         2.58842103280486    5.08090604101118   -1.85225640641322
H         2.73364218201896    4.21828806049168   -1.18816130874442
C         3.63834660881259    4.98456252430983   -2.95563381693288
H         3.59903194688405    4.00200434731745   -3.42371520375990
H         4.62951466766600    5.11732818397359   -2.52932434925108
H         3.48126127916635    5.73445608294448   -3.72887029751639
C         1.17966402563049    4.97707788662815   -2.43186942873664
H         0.91734405225367    5.83249722895211   -3.04913456014595
H         0.43382503180876    4.86463438711056   -1.65040801106034
H         1.13421835936976    4.08833382008020   -3.06072421388314
P         2.98458149749385    6.52396414776066   -0.70883832189906
P         3.04894825067185    6.81867152637512    2.52139225607830
Cl        3.41755366982614    3.87162241847423    1.14936111149563
Ru        4.51589514229218    5.99976493997781    0.93869442149285

