61
CSD_code = REKDAN | q = 0 | S = 0 | Stoichiometry = C28H18N2O12Zn | MND = 6
Zn        4.75321797152986    2.26219134912372    4.16065577796082
O         3.64733294840866    3.55222341078716    3.06378298088765
O         5.39340088765705    2.55018507481621    2.22239380308640
O         7.03426384884757    3.77191409636410   -2.20476384883485
H         7.62996090355253    3.73242613472035   -2.96933569134312
O         5.96656803794688    5.24514074186797   -3.49050124458800
O         1.83724808548288    7.47504663122436   -1.56524485748569
O         1.19245186305735    6.85825802335743    0.47659955310413
H         0.49385948750423    7.51169255450721    0.31551342054404
N         3.46408255228824    0.63335584297240    3.88127301045935
C         2.15566430835891    0.74236822500690    3.75321554160688
H         1.78630947942054    1.74366467107213    3.58530320823667
C         1.30860725204808   -0.35396902603847    3.82934589104197
H         0.24337980624761   -0.23057305047700    3.71865372415210
C         1.86607066577329   -1.60086843978425    4.06118906539810
H         1.24154947903541   -2.47823394124147    4.14145182940414
C         3.24054842718005   -1.70945642049984    4.19628570747996
H         3.69054269052165   -2.66817481366739    4.39746105605375
C         4.02015033697999   -0.55907283653671    4.09455233372539
C         4.31321892124466    4.18282016619946    0.87617685076822
C         5.22767382051350    4.02874699286945   -0.15785933424046
H         6.04050179536313    3.32906832718784   -0.04070640706187
C         5.08812959204605    4.77599003235638   -1.32401038162754
C         4.03302997527845    5.67373068627978   -1.45094547729799
H         3.92395341683117    6.25388523026181   -2.35550909704823
C         3.11986050335384    5.82821505209063   -0.41287785077488
C         3.26178400853812    5.08257463164244    0.75374564108367
H         2.56729778317460    5.19477586765294    1.57180529223193
C         4.46620921390012    3.38320261638390    2.13053905608596
C         6.04492373744455    4.64391526660310   -2.44961406175581
C         2.01044677696789    6.79869332478336   -0.58358993245985
O         5.85920901639726    3.55207633622377    5.25783622648774
O         4.11300410007045    2.55007069697103    6.09898909435813
O         2.47004898432109    3.77450765419279   10.52494606009678
H         1.87392442065359    3.73576200806865   11.28921957522167
O         3.53790339910501    5.24757418706997   11.81067804682728
O         7.67009159448349    7.47369024883234    9.88739811191840
O         8.31559350034233    6.85597683243416    7.84604604132742
H         9.01446739697550    7.50906860789697    8.00731411052072
N         6.04276131781365    0.63363591712852    4.43967639161454
C         7.35116499964697    0.74300704258292    4.56755579836918
H         7.72022932359983    1.74434902423013    4.73583344344379
C         8.19854003522108   -0.35305407956639    4.49098243006940
H         9.26374548157864   -0.22936676422386    4.60155852246638
C         7.64141537698106   -1.60005693210835    4.25888812221216
H         8.26619140652530   -2.47720477376720    4.17823175756688
C         6.26695261323510   -1.70901268929018    4.12392313275754
H         5.81722285016346   -2.66779881567077    3.92248255219902
C         5.48702447245233   -0.55888837512782    4.22608050191696
C         5.19309792335724    4.18268640358209    7.44533992220009
C         4.27796329130854    4.02951245913884    8.47890305635655
H         3.46463609203464    3.33046167633184    8.36147423758446
C         4.41742559473175    4.77691470483921    9.64497556035689
C         5.47315123532527    5.67385560086382    9.77232020143222
H         5.58218616443293    6.25413290503876   10.67681431519580
C         6.38701169369832    5.82743515317727    8.73472094304531
C         6.24515514770009    5.08167094637378    7.56817862328236
H         6.94012159466940    5.19321196135829    6.75043923862898
C         5.04011121086401    3.38316836516258    6.19090194129846
C         3.45977804516065    4.64602565504334   10.76997137328734
C         7.49703314071276    6.79715162124649    8.90583510922623

