115
CSD_code = REKDOA | q = 0 | S = 0 | Stoichiometry = C59H48AgN2P3S2 | MND = 4
Ag        8.40402952522432    3.04673857043776    4.61168896596825
P         7.17195238160313    4.63271631526702    2.94294352922989
P         9.82005727647311    4.39772604102251    6.30873811582694
P         9.83463774923609    1.28875489465622    3.39141760636082
S         6.20871939455248    2.10926514692766    5.75202964296092
S         3.22277156020790    1.12830747664199    5.54839508329040
N         7.81892664918940    0.24879360925253    3.32161625170691
N         3.82300755553082   -1.35454481716473    2.81647222824669
C         5.75131127324083    0.87987845969977    4.64448561029135
C         4.46753560428315    0.41021986663212    4.52772207050870
C         6.81884887459575    0.43927612629547    3.87361465082299
C         4.12665249752474   -0.56115045599357    3.59548843622060
C         1.77951998942454    0.13552751531219    5.06751104411651
C        11.50724602878898    2.09687971113164    3.40329810079332
C        12.71539419330862    1.45869291034252    3.66253089310469
C        13.90437131199628    2.16480074159213    3.60306153367138
C        13.90512865061059    3.51276967238713    3.28320414531429
C        12.70690640461006    4.15910377448327    3.02504201084186
C        11.52105959420846    3.45247245561942    3.09074851725674
C        10.27353836449178   -0.24241690908414    4.25693696659888
C        10.18215265199594   -1.50291654012976    3.68179351167348
C        10.49840511403631   -2.62186139178820    4.43174806696717
C        10.89496785532217   -2.49053283748858    5.75285998908005
C        10.96629326297082   -1.23432211083117    6.33467486392655
C        10.65137914099776   -0.11423633767249    5.59014288193018
C         9.86911713492018    0.88709569650942    1.61275547898621
C        10.98188188711833    0.29605456253906    1.02422042185488
C        10.99319535877035    0.04398302806779   -0.33524546249520
C         9.90539523003017    0.39336372075848   -1.11975214444190
C         8.79952307023367    0.99138624447129   -0.53951772855300
C         8.78173886985807    1.23587868663935    0.82158615953081
C        11.01253891523874    3.41938529546053    7.27467724695321
C        10.66285858185586    2.89198576030934    8.51447863015017
C        11.52988258798043    2.03844995246498    9.17267329971379
C        12.74269618049946    1.69503006194240    8.59810715709727
C        13.08880286083043    2.20746946494409    7.35775158374374
C        12.22756417620974    3.05999811421913    6.69398086434758
C         8.91367662042003    5.26243444066900    7.64031956219899
C         9.38083734418938    6.42668249668121    8.23983943924957
C         8.64276905380338    7.02700987461911    9.24426844307486
C         7.44090312203779    6.47419147651232    9.65641726836074
C         6.97086765778047    5.31567007660359    9.05939147568373
C         7.70192565877219    4.71306123922456    8.05255139522362
C        10.83537971588508    5.74732230283875    5.61923774182666
C        10.32921741442723    6.39756866956493    4.49835889176336
C        11.02511792229718    7.43737492689758    3.91235416029360
C        12.23952213991821    7.83828638673452    4.44559466956823
C        12.74685155266953    7.20067437362327    5.56639849815414
C        12.05066056188285    6.16075533434690    6.15602303208559
C         6.16585908874836    5.91116978989843    3.76467045691211
C         6.48201418482380    6.26249895122413    5.07044242907436
C         5.73750389920463    7.21657349678305    5.73994915188362
C         4.66984792693928    7.82609075305752    5.10330056748012
C         4.34929587838787    7.48060544216247    3.79866396557082
C         5.09036766032291    6.52654639338413    3.12759132784329
C         5.87215666839923    3.77289006149273    1.99877926227887
C         4.75816926502413    3.34468140506849    2.71968721516507
C         3.76818318808562    2.61193740525003    2.09535223376845
C         3.88635539677307    2.28195677919101    0.75481173520576
C         4.99044093858838    2.70743205653754    0.03620350400853
C         5.98209742317016    3.45256883113013    0.65059029440810
C         8.06575991742746    5.58085769180311    1.66361695443322
C         7.95916709863496    6.95913238955989    1.51506865688137
C         8.73022156335652    7.61417813073687    0.57061510290157
C         9.61636757277528    6.90697739052088   -0.22485674342887
C         9.73958220802679    5.53540078509453   -0.06909105928399
C         8.97612635825905    4.87731908093829    0.87571138575022
H         0.94353889775869    0.52249303360598    5.64188658642840
H         1.58743786701776    0.24334549433766    4.00368096539362
H         1.95230527063923   -0.90842815127391    5.31304273381856
H        12.73027494438517    0.40987136056662    3.92604878627579
H        14.83782761237133    1.65920810253187    3.80731210779697
H        14.83598099273697    4.05939357655100    3.24064434906674
H        12.69542021594832    5.21228056900962    2.78255692439989
H        10.57723525291518    3.95530904135077    2.89980869734838
H         9.85192761322246   -1.60334631697645    2.65793414562877
H        10.43024711219380   -3.60335657899289    3.98466695958972
H        11.13932229105881   -3.36878356649025    6.33279273431818
H        11.26176168914522   -1.12740407098115    7.36882583168034
H        10.69587768941497    0.87278297334223    6.03625980523099
H        11.83611041654252    0.02968481940254    1.63051847936966
H        11.85567587896197   -0.42537629246325   -0.78675951425857
H         9.92061603469784    0.19734447189386   -2.18207855103879
H         7.94797920558312    1.26421529682701   -1.14613286976270
H         7.91150150710680    1.68361848392909    1.28427325332410
H         9.71173472394786    3.14758409247891    8.96068665448395
H        11.25416650614214    1.63521169714109   10.13627839314330
H        13.41489785631629    1.02471179966621    9.11323727970243
H        14.02825327675315    1.93579366851965    6.89920165263551
H        12.48993479601819    3.44859155350586    5.72064944381621
H        10.31370396543283    6.86739513669273    7.91887082475282
H         9.00769684220114    7.93278991565201    9.70675859554938
H         9.38230121805790    6.07233195343482    4.08006399047437
H         6.86874926442601    6.95015005312965   10.43932771259095
H         7.32763730464304    3.81776473326842    7.57148667310564
H         6.03147608644574    4.88392795786661    9.37072830092981
H        10.62338802545933    7.92615967519237    3.03649627264282
H        12.79218257512566    8.64550560776445    3.98779900062509
H        13.69186649921345    7.51584525723162    5.98469564087541
H        12.45469946431018    5.66784964423701    7.02927379024820
H         7.31076328837552    5.76992898877927    5.56598909950865
H         5.98898577360685    7.47470543047852    6.75842786729523
H         4.08116237939583    8.56746093805914    5.62325981300289
H         3.51402370825862    7.95552462983706    3.30459013855156
H         4.83576062253878    6.25125127559670    2.11286884156584
H         4.67419097318231    3.58875189595665    3.77104992129154
H         2.90165760192629    2.29491835814651    2.65653232111183
H         3.11982152325992    1.69384305672040    0.27306640606953
H         5.08087135280634    2.45827784654174   -1.01132397495601
H         6.83552178947567    3.78949747449527    0.07864226166667
H         7.27900172441341    7.52219123202634    2.13807114124188
H         8.63920652092403    8.68514578476925    0.45769335920925
H        10.21601493060930    7.42464992304256   -0.95893672057427
H        10.43744106963236    4.97800915089519   -0.67679441719257
H         9.08929508636537    3.80890811465966    1.01328705011033

