47
CSD_code = REKFAO | q = 0 | S = 0 | Stoichiometry = C22H18AuPS5 | MND = 2
Au        1.31384365001428    8.99034137966756   11.53969726332108
S        -0.07946181678821   10.64251248749707   10.64723449765462
S        -2.40656441258627   11.59214383303453    8.38126590460345
S         0.64760694943569    8.51509664833333    8.65022099849774
S        -1.35084724653813    9.32727828383547    6.71383783758603
S         0.32576153458601    6.91607761452469    6.17246783054397
P         2.59314395237337    7.16059485945149   11.93490289592629
C        -0.34888298326889    9.89193137294659    9.11628521288754
C        -1.26039518804817   10.27575290465373    8.19525336040063
C        -0.11264094136264    8.17884363754484    7.10793496842825
C        -1.27272535006841   13.01437937602097    8.46313589871388
H        -1.90264799088713   13.88979209049075    8.57700473500601
H        -0.70460101117944   13.07219575655124    7.53991790682431
H        -0.62084498292798   12.90081531142157    9.32278839791074
C         2.43903806762339    6.07398696875905   10.49685554320733
C         1.15691975410670    5.59441987743027   10.22699833951092
H         0.35216651866347    5.81699942198739   10.91813841987487
C         0.92434688777803    4.85326790168216    9.08658418201053
H        -0.06840204631552    4.48762874433429    8.87212332216812
C         1.96266785728320    4.60380295406279    8.20136363363761
H         1.77325676995441    4.04759367552681    7.29673574207390
C         3.23282127223085    5.08710922072990    8.46411959602732
H         4.03659857759163    4.89956751584857    7.76797920081185
C         3.47807756864346    5.82610375780389    9.60914838066274
H         4.46798216221246    6.21273430415034    9.80968651497040
C         4.36939206948289    7.46363259448013   12.10973864855445
C         4.90722387040854    8.49919694321795   11.34863885764215
H         4.25392261877769    9.07809185996435   10.70688498400513
C         6.25913412775817    8.77606141468746   11.41779958759214
H         6.67732262626027    9.57514501669106   10.82429530555271
C         7.07407417116435    8.03046228557947   12.25594767171724
H         8.12946860383187    8.25004381405117   12.31477154426556
C         6.53772741186526    7.00854954489501   13.02250608611817
H         7.17464402354204    6.43312085822252   13.67778329144588
C         5.18624006378363    6.71964498335304   12.95363192982105
H         4.76575289704712    5.92355172620797   13.55202138743010
C         2.15309609819069    6.12120933393975   13.35039118304764
C         1.68689559706547    6.75928643076454   14.49601507873385
H         1.58642346194305    7.83765557313186   14.49623260338840
C         1.35353836140129    6.01446619587835   15.61202379751433
H         0.99184590302098    6.50781601802022   16.50161049136454
C         1.47757364610168    4.63424682780108   15.58307127463606
H         1.21239064668235    4.05205013242626   16.45273204170569
C         1.93485277410494    3.99720528585184   14.43995209589335
H         2.02622648044551    2.92131897419674   14.42031307379882
C         2.27432901030143    4.73504416625885   13.32062599521391
H         2.62820798432635    4.24453012206629   12.42383248730599

