115
CSD_code = REKFES | q = 0 | S = 0 | Stoichiometry = C58H48AgP3S5 | MND = 4
Ag        5.24332624627506   11.30817217461578   10.63596229771818
P         3.81447830886493    9.42186134678913    9.37450398606109
P         7.63461037765098   10.27262666292863   10.49828115188749
P         4.34609569373438   11.44564408283835   13.06873418508631
S         5.00596899477773   13.42569073499064    9.17230178084212
S         7.40348496114128   15.11503273054351    7.48003852859304
S         6.68890142587916   13.89917472449518   11.59501493168450
S         8.69885257246527   15.42059746472383   10.17350411470969
S         8.99103288405948   15.01036040538366   13.10552512942862
C         6.40800719704447   14.08888266147285    9.85373368211089
C         7.37218131712790   14.78488878168605    9.20494630477032
C         8.17660083167072   14.79502634315595   11.70329080866495
C         7.51978143958337   13.41928949982979    6.82250993183640
C         3.78701986243082    9.48057934647743    7.54694205514143
C         3.73577329261047   10.75179399142677    6.97966058899663
C         3.69217700651263   10.90069527907936    5.60674227757144
C         3.69581763395519    9.78120940371869    4.78960861889622
C         3.73928859302866    8.51574654359661    5.35096434172772
C         3.78362634146140    8.35944651886956    6.72552538402700
C         2.01605263167785    9.57120699623488    9.64683676646597
C         1.55728710213780   10.62714351212716   10.42409852144556
C         0.20198613577720   10.80082696370194   10.63852436520330
C        -0.70167833355191    9.92189646509120   10.06557705531721
C        -0.24982525038934    8.87811664110700    9.27132141978676
C         1.10381942679841    8.70130643825222    9.05555875607313
C         4.16533700665648    7.66405443732648    9.69682286597358
C         5.37997007644383    7.16082596885246    9.23071962690940
C         5.74260977364046    5.85508759752068    9.49290827667606
C         4.90998183144638    5.04258930921810   10.24643932485620
C         3.71450847704657    5.54320749286849   10.73214030758617
C         3.34064071114881    6.84776940807214   10.46165556604817
C         7.63994656321896    8.57457778307739   11.17755103917319
C         8.62646263408310    7.63854973921068   10.88801656955207
C         8.57434520467927    6.38351837307567   11.46608391034229
C         7.54652546344676    6.05341163848254   12.33559412958340
C         6.55871071912732    6.97992191449337   12.62319409122186
C         6.60517273188401    8.23196810903851   12.04043281652408
C         9.12002212718420   10.98840080556543   11.26321433297961
C         9.68199780367476   12.10874728049570   10.65436300703219
C        10.76902627768353   12.74071020897232   11.22449071196495
C        11.29315992871823   12.27045161772870   12.41785663955101
C        10.73114083919859   11.16433472279030   13.03249025284553
C         9.64491151507700   10.52321321431817   12.46355234414665
C         8.22246446419965   10.01527670338907    8.78876090727297
C         7.26080433260658   10.04101214930297    7.78472229163779
C         7.61213760459022    9.83673130593490    6.46340211081722
C         8.93914105510817    9.61688719705539    6.13383319607754
C         9.90753514075335    9.61192416167041    7.12597451377877
C         9.55742399680289    9.81081035558017    8.44926627751034
C         2.83187886619586   12.43424115634704   13.28290480862338
C         1.82872173812599   12.11858344066379   14.19212972563834
C         0.70595496108776   12.92293633750898   14.28054934200956
C         0.57762167571945   14.03841549109403   13.46892803697258
C         1.57422117479938   14.35322318697860   12.55815488206114
C         2.69489782869687   13.55133974686525   12.46134532014528
C         5.52209255409292   12.27956065623446   14.17587348369501
C         6.82395302308552   11.78206514528958   14.18273387417731
C         7.79092488686323   12.37587547283647   14.96727119584668
C         7.46855918869961   13.48030464636959   15.74072675853388
C         6.17962762570239   13.98424536901945   15.72744491709287
C         5.20274107871513   13.38974241187397   14.94715824799735
C         3.95065596423538    9.93663238473101   14.01688655782117
C         4.32776647922064    9.73967777907134   15.34016152924217
C         3.99961088761737    8.55735257646335   15.98036624025239
C         3.29721881463282    7.56989521141355   15.30948019628071
C         2.92240427978199    7.76157435806291   13.98851415146166
C         3.25240266578769    8.93768807176952   13.34394505915925
H         7.51226829186028   13.51237371494224    5.74227585715498
H         6.65649048607188   12.85206596378099    7.15739300829951
H         8.44475121123524   12.95652982466490    7.15543635075202
H         3.74464835975811   11.62257408881995    7.62318453158553
H         3.66049914795822   11.88997742647442    5.17532196323718
H         3.66618891305150    9.89432619386348    3.71578353947132
H         3.73923500214408    7.64209091555441    4.71499974444571
H         3.82412027329595    7.36716244890680    7.15209173260933
H         2.27700040326245   11.31693679026677   10.85297716336830
H        -0.14414632453992   11.62176695319920   11.24923557374250
H        -1.76113441534977   10.05231189923751   10.22951751729993
H        -0.95844393275914    8.20211043714665    8.81524534360783
H         1.45710414830698    7.89382445572295    8.42921021780456
H         6.03409926694505    7.80108250291874    8.65277844098760
H         6.67828151040902    5.47078115717434    9.11448284939588
H         5.19432314042188    4.02202717748755   10.45484093050200
H         3.06562834713183    4.91130189048587   11.32140986354853
H         2.40047018054850    7.22765075420419   10.83489352880848
H         9.42991066547641    7.88813987162811   10.21064275446525
H         9.34244703351150    5.65804697209302   11.23980861059119
H         7.51587719728229    5.07239002231327   12.78586320190981
H         5.75010690098850    6.73149212141665   13.29478468226998
H         5.82757014308681    8.96056828716756   12.24721126982239
H         9.26086377308527   12.47539750499588    9.72585367453877
H        11.19839493005594   13.60986210726835   10.74858207669810
H        12.13329271363121   12.77394148950923   12.87111945512643
H        11.14072253484206   10.79790588363442   13.96327553079579
H         9.20774774789747    9.65951252450879   12.94725956333738
H         6.22898600017810   10.24486196094602    8.05001351083910
H         6.85140359195477    9.85895279541280    5.69671365520955
H         9.22300983414981    9.46198891599032    5.10353254910346
H        10.94466913030257    9.45651844005491    6.86596939372641
H        10.32395367567098    9.82966335321993    9.21209672588924
H         1.92470990588391   11.24840690328323   14.82609285662931
H        -0.07298090281632   12.67724768925605   14.98800819804000
H        -0.30174952254185   14.66129095344553   13.54346213110109
H         1.47423170899261   15.21859359117360   11.92002143958498
H         3.47018482347044   13.78316597116330   11.74108818005796
H         7.06829607418581   10.93211179316396   13.55396884116811
H         8.80214594164100   11.99802714562157   14.95701200435149
H         8.23038157789711   13.96042733070152   16.33534849481940
H         5.93380455077373   14.85399812435008   16.31906729546778
H         4.20016142703522   13.79428932638085   14.93081983181609
H         4.87546738897888   10.50801356061845   15.86712379991363
H         4.29300608601125    8.40699004233392   17.00912295701991
H         3.04478001720032    6.64923006294681   15.81481486428577
H         2.37867448515216    6.99047631146869   13.46292455943128
H         2.98074989204979    9.09814369940387   12.30675331415872

