92
CSD_code = REKFAQ | q = 1 | S = 0 | Stoichiometry = C34H51N2O2P2Ru(1+) | MND = 9
C         0.28373711946753   14.80248549606496   10.24012297138650
C        -0.38271829855891   15.75576554204051    9.40001036315225
C         0.46965608521344   16.03279745676208    8.29170472776358
C         1.63464901288631   15.19742784447184    8.40872160563254
C         1.54813539911361   14.48625904411735    9.66555482889856
C        -0.20964331650248   14.37125639276817   11.57864540093763
H         0.35109372444565   13.51654387601330   11.94922542153196
H        -1.26428416687692   14.09897999322813   11.52970855250197
H        -0.10826887745735   15.19469755947845   12.28812033908509
C        -1.60492524851761   16.49699771317584    9.83746149483369
H        -2.45800284310821   15.82493076977508    9.93330225721994
H        -1.86132440779168   17.30137930034921    9.15333730760054
H        -1.41920345237960   16.93264722464293   10.82020880841049
C         0.43195836725756   17.22456271121528    7.39246936834005
H         1.12448808753843   17.96485078845686    7.80089077828603
H        -0.55068141219869   17.68110505236026    7.34042111019018
H         0.77190074376239   16.98064568009672    6.39003178441649
C         2.86631951113817   15.44515178370985    7.59008756127230
H         2.65470395038148   15.37971506647253    6.52401892798913
H         3.66731493254872   14.75066983330686    7.82527169532351
H         3.22521005828088   16.45522582516691    7.79690658688200
C         2.68029164496426   13.91502621653632   10.46518262770909
H         2.71721309722529   14.44116022733579   11.42007453866119
H         3.63386878173860   14.06396925484112    9.96633038340186
H         2.55934341262816   12.85588314584995   10.68021828288983
C         2.19881063202452   10.86313702832445    7.92774799564292
C         2.54185418226132    9.61713255860005    7.10839434376536
H         2.65571997206591    9.84807550899666    6.05097767184001
H         1.80843948482259    8.82393221344515    7.22315306827614
H         3.49245587853618    9.22492869821052    7.46612090327892
C         1.72384085729964   10.46889884375211    9.32807261746675
H         2.56132752195577   10.14181718584889    9.94097890150277
H         1.00815421531070    9.65171131661350    9.27667709870062
H         1.22521354796902   11.30568485561693    9.81935526665041
C         3.44147917554762   11.75115091527881    7.98651652179858
H         3.16353186337706   12.76447068022779    8.25309504041697
H         3.95441694524840   11.77218230839995    7.02710851260517
H         4.14398700262519   11.37279546084610    8.72614580128662
C        -3.04105755713744   14.68118493970806    6.07529093316347
C        -4.11113584126807   14.34675934029093    7.11658296220905
H        -3.66948028747198   14.26157373527695    8.10797102768580
H        -4.61823783031166   13.41420188923980    6.88442166615281
H        -4.85943874211394   15.13669316235899    7.13925466493462
C        -2.60188407375663   16.12941863153554    6.24802571547543
H        -3.42856874067650   16.80190190275579    6.02656328335283
H        -1.77871530675783   16.37220000539589    5.57888888990331
H        -2.29070384987444   16.28881583507789    7.27461715720052
C        -3.59245397448946   14.49025581040863    4.66122815897306
H        -4.56505508353891   14.97601670726033    4.60427548238925
H        -3.73210633788837   13.44566055696893    4.39421223884391
H        -2.95366336176463   14.95251017371733    3.91279665972123
C        -0.46505611274252   10.56092115691471    6.92934429209993
H         0.05716586041048    9.65613428754919    6.61515017141702
H        -0.94478200094537   10.38317169280873    7.90797929581570
C         1.36540557992377   12.28549571407118    5.46106753521864
H         2.45058364410217   12.37371170022358    5.52170319004848
H         1.09401337081733   11.46545381690219    4.77731151722143
C        -0.60679156702472   13.50068824732477    4.79377372185326
H        -0.87804414998877   12.56869064661760    4.27313762779044
H        -0.89489154990275   14.34280330535544    4.16778959527957
C        -2.36749981356521   11.90496818768761    6.37566180872175
H        -2.76710039824041   11.69550966653230    7.38047451049214
H        -3.19003380217783   11.97071273696449    5.66066493111254
C        -1.92180367182068    9.83680210638488    5.14049438856712
C        -3.26133834768888    9.46233687021636    5.12336025654364
H        -3.97961052394896    9.95656063926987    5.75945298222907
C        -3.68643175373692    8.42854657616489    4.30674417058369
H        -4.72877536228253    8.14856740586912    4.30810385495290
C        -2.78682213073088    7.74825779684748    3.50610925976022
H        -3.12261316682226    6.94125798026210    2.87465960202649
C        -1.44981827517915    8.10898323321547    3.52577760883259
H        -0.73774336488598    7.58576151926916    2.90599633736175
C        -1.02120860129623    9.14584070406637    4.33128615470531
H         0.02292017956696    9.42582640440282    4.32999643560727
C         1.59562036672204   14.42589887071318    4.27168238825511
C         1.16303342802706   15.74277052025749    4.09552206299131
H         0.21728878808199   16.05472052408364    4.51291630322357
C         1.92359764830928   16.65934787738243    3.39654368618921
H         1.56138386797547   17.66952657860922    3.27821766413267
C         3.14270824553446   16.28926979661925    2.85494980094751
H         3.73907113867300   17.00438269034288    2.31195585231828
C         3.57765507705695   14.98588304130157    3.01059988205955
H         4.51623720858782   14.67458812055748    2.57824347769819
C         2.81595766989343   14.06117557474114    3.70353175755775
H         3.17967635869825   13.04781512059204    3.76919926598563
N        -1.43060911102838   10.91483942542410    5.91897372104736
N         0.81547443141871   13.54963387735256    5.04632787385244
O        -0.97082462519690   12.30685238466519    9.37928346197977
O        -1.89061681992822   13.20462105951161    9.03993534119338
P         0.80000980163236   11.88680324056595    7.18529697880212
P        -1.54751567790993   13.57047788726397    6.39864018052391
Ru       -0.12573403559089   13.77314695267380    8.31294074545181

