81
CSD_code = REKFIW | q = 0 | S = 0 | Stoichiometry = C40H33CuP2S5 | MND = 4
Cu        0.08796133379539    2.48256954904701    3.46633405655865
P         0.50312547957595    1.38219941061868    5.36098888628787
P         1.68854761331090    3.70834719636284    2.43715070533361
S        -1.98487708770701    3.04189659272054    2.67546545565491
S        -0.00080798636782    0.44858746903834    1.74162192754228
S        -2.32598338359243    3.53461721526616   -0.23890594822405
S        -0.53414622774400    1.39270641171341   -1.05570530080774
S        -1.73673408617571    3.14424890666608   -3.12577441516476
C        -1.59704288726167    2.61044244731084    1.07624950322253
C        -0.79269709837689    1.59488265162062    0.66988336039418
C        -1.54453159729592    2.71117147201291   -1.56408625056532
C        -1.45228914268042   -0.45754545426827    2.37033096858017
C         2.10065714279477    1.93657599910354    6.03237838615878
C         2.22940930157443    3.31609707379025    6.18052189120658
C         3.39868624726566    3.86084269437260    6.67089952897035
C         4.45666842478086    3.03029531224606    7.00624146148761
C         4.33714066784930    1.66001598270635    6.85042380926626
C         3.16363168008944    1.10799320587694    6.36648770059590
C        -0.60867766657327    1.71553486274949    6.76022056426647
C        -0.22715540149433    1.48487989924297    8.07924112697409
C        -1.11859274293047    1.74521841027667    9.10266990786192
C        -2.38455251538628    2.23560334841988    8.81747801052609
C        -2.76273755744040    2.47139103139626    7.50610908282526
C        -1.87568544304661    2.21416928871338    6.47559365799985
C         0.62970875863181   -0.42744860259149    5.32306756364321
C         1.55958613269989   -0.97640161414725    4.43987637473762
C         1.64577297799834   -2.34650620723295    4.28749540609887
C         0.79458229244860   -3.17741595370997    5.00063590807604
C        -0.14402981090955   -2.63415719321329    5.86242654044005
C        -0.23511221782974   -1.26212960494369    6.02235027930018
C         1.69316494354774    3.96913587779431    0.63549791182583
C         2.48968729103335    3.25982242809770   -0.25483468446803
C         2.35865321580799    3.47945649681442   -1.61540723967219
C         1.43899804641485    4.39745277274011   -2.09349979639319
C         0.63767486396865    5.10025005356574   -1.20690469102357
C         0.75558665071622    4.88194561509530    0.15148179783511
C         1.80621139045468    5.42826681518237    3.01188191830885
C         0.87865455262509    5.86989572067552    3.94842660398965
C         0.91901495835833    7.17640452449898    4.40244740768482
C         1.88254853521821    8.04459975357987    3.91700653408154
C         2.79615937515742    7.61316016385264    2.96666184245882
C         2.75858201542569    6.31022667350462    2.50756623103646
C         3.30804852672654    2.97175462527991    2.80518324879352
C         3.45401209994652    1.62669497724055    2.46464429846748
C         4.61611691751755    0.94963934632189    2.78008253284899
C         5.63493571451460    1.60354826097394    3.45465616408090
C         5.48433243673738    2.93172173517335    3.81423875722790
C         4.32456737700074    3.61681236621432    3.49796861547110
H        -2.10713637199316    0.24209389938614    2.88242674572953
H        -1.95997871652871   -0.92597376456241    1.53287631640956
H        -1.07771204470964   -1.20624996623857    3.06037274392650
H         1.39697689121592    3.95277934134361    5.90865288492784
H         3.48770257125557    4.93104300083317    6.78777635142290
H         5.37437648935065    3.45185733301461    7.38841774981739
H         5.16217472231163    1.01343078298665    7.11125992274054
H         3.07604915282870    0.03675527960727    6.25541459213770
H         0.76214754246992    1.10361753302390    8.29355014743668
H        -0.82729650048131    1.56613003074959   10.12741014698547
H        -3.07569363333407    2.43691289208935    9.62258181063403
H        -3.74644981375047    2.85760201337662    7.28509500334323
H        -2.15314765519820    2.40234707097625    5.44551896536815
H         2.20453042533971   -0.31567228030012    3.87628161977900
H         2.36870283693114   -2.76871577402044    3.60530709916510
H         0.85762521371132   -4.24829431837802    4.87731354857713
H        -0.81341832761492   -3.28176034650005    6.40947905059944
H        -0.97580276343687   -0.83989396114933    6.68676242181842
H         3.21140878062382    2.54310022767800    0.10999462903725
H         2.97547053375086    2.92364833889866   -2.30620757357301
H         1.33106291313344    4.55450127198057   -3.15570725217651
H        -0.09255376038638    5.80372999922335   -1.57852570866115
H         0.11922324043227    5.41310817071050    0.84893242189423
H         0.11430877402097    5.18453920685209    4.29751910981951
H         0.19567910232252    7.51861855129753    5.12782770026214
H         1.91578162994959    9.06486121905824    4.26968773847029
H         3.53591036565616    8.29834599089737    2.57894030344335
H         3.45636123749319    5.97189541192476    1.75325425696566
H         2.64237503110283    1.12033708499391    1.95568047973489
H         4.72690875751536   -0.08959608749834    2.50580053498824
H         6.54247429477888    1.07499485480748    3.70571634769413
H         6.27424684777417    3.43899487017383    4.34841577275680
H         4.20991812247740    4.64894211488903    3.79510651666537

