104
CSD_code = REKMEA | q = 0 | S = 0 | Stoichiometry = C54H41N5O2SZn | MND = 4
Zn        4.90744963335875    2.21643585820345   26.85611188388590
S         6.87467778829820    4.75406396739330   27.52809727392169
O         5.75488131375935    5.32366119248212   28.22268329340146
O         8.14573515902059    4.65833858676728   28.20611479587546
N         7.41407446210425    2.41064300722296   26.77169940216346
N         5.08924002412543    2.33241897282900   24.82169760129260
N         3.06220245891265    1.79626696110349   26.82488557976005
N         5.24078993792300    1.54390572612029   28.72714060880134
N         6.40897242005288    3.30312373693971   26.97682988759917
C         8.13725956095259    1.85576389627041   27.78165921114428
C         9.33012019215000    1.33739497988844   27.20470702613640
H        10.08423139132624    0.80256985806884   27.74884450139529
C         9.27375574503874    1.55865246940256   25.85931172572052
H         9.97069299634385    1.22560236450107   25.11468361367051
C         8.05326632344230    2.23686357721592   25.57696104074710
C         7.51394060775223    2.56758726934787   24.32751913856454
C         6.14528541583259    2.73139149808018   24.05397319716198
C         5.65569503544919    3.29038037839652   22.82406107612754
H         6.26734499237162    3.73396891200281   22.06331987973910
C         4.30591082345174    3.19054104215908   22.84944137887493
H         3.60535177926690    3.53085125911060   22.11170674483099
C         3.95845628208563    2.57753958250702   24.10107120728977
C         2.63665289171536    2.29995321457844   24.48194545592882
C         2.22957335365385    1.90598358994477   25.75879851114339
C         0.89659690618213    1.56479987015836   26.17203362071939
H         0.03570705115429    1.54042215355291   25.53265440071150
C         0.95344469086594    1.27576710288176   27.49664285500202
H         0.14564113774521    0.99060738811255   28.14225787304025
C         2.32423099911585    1.42171145208835   27.90013141665298
C         2.83192819856917    1.26003988172793   29.19062283399298
C         4.17533635485317    1.39240580484936   29.56287762338792
C         4.63015800236532    1.36186249040275   30.92691976597270
H         3.99975224230156    1.25074639464654   31.78723247718222
C         5.97173313673667    1.52715945540425   30.89632534474991
H         6.64545146983592    1.59569671380310   31.72748866040040
C         6.35557281206804    1.62606939144042   29.51230517555918
C         7.69074054031646    1.69362189530746   29.10101312139442
C         8.47276623900613    2.66707388108630   23.21747072424455
C         9.67763904397101    3.34744252509900   23.39525376634077
H         9.87829472648524    3.81858732090965   24.34498350387010
C        10.59393949068742    3.43779286092899   22.36498053858239
H        11.52080391347491    3.97178141203295   22.51637433884722
C        10.32925443001813    2.84592447618533   21.14063770468768
H        11.04471867292002    2.91923178870775   20.33534753079009
C         9.14454782996119    2.15186301627394   20.95812743140378
H         8.93873358158042    1.67461166218592   20.01114420349733
C         8.22562965998803    2.05854568931276   21.98669644344304
H         7.31718218656038    1.49069447947347   21.84985260069258
C         1.58903497081915    2.45509191479335   23.45185378529284
C         1.65182072628412    1.72117435178830   22.26976538233570
H         2.47310052691955    1.03604123643744   22.11778197398198
C         0.66683176254236    1.85342997257083   21.30846781366629
H         0.72314461571568    1.27362905380359   20.39871991027242
C        -0.39018027164725    2.72559801323606   21.51006257854833
H        -1.15810410763408    2.82971304040083   20.75797425501790
C        -0.45741100799193    3.46461554705421   22.67951283198318
H        -1.27684033614167    4.15018888210391   22.83899417911334
C         0.52269148323369    3.32919473274527   23.64587392469151
H         0.47718350552978    3.91422279634798   24.55285356158072
C         1.84825049871600    0.95831573506873   30.25818354166822
C         1.22363210438069   -0.28326275720939   30.30583964641858
H         1.47369813264551   -1.02967153616711   29.56580068136255
C         0.29893890762121   -0.56331068907743   31.29609316077261
H        -0.17741557693976   -1.53240181589278   31.32710920773062
C        -0.01639015365079    0.39498996108578   32.24456451748132
H        -0.73945999004555    0.17607660393437   33.01626554116221
C         0.59735815899388    1.63572940848466   32.19914229755595
H         0.35143565338831    2.38774144727172   32.93451791976910
C         1.52552953582052    1.91724047729557   31.21285011167663
H         2.00093772818891    2.88624946585472   31.16998489637274
C         8.75967773405728    1.50835486308762   30.09803500508906
C         8.80878106701588    0.39415523524291   30.93201220368744
H         8.04391996572976   -0.36496236290734   30.85182540874011
C         9.84365085636099    0.24899073980740   31.83790598453434
H         9.87899890543014   -0.62106544029213   32.47746869519936
C        10.83401343546418    1.21390197642750   31.92465930420343
H        11.63873629342342    1.09884958701981   32.63598020792303
C        10.79000678935094    2.32490373318608   31.09735968486408
H        11.55922772214825    3.07984954903657   31.16697572181253
C         9.76456547214290    2.47088872590826   30.18174860624650
H         9.70062994068192    3.34084527364717   29.54500882900907
C         7.10841813394884    5.61562719655910   25.97714047249960
C         8.37229125690567    5.89111212239209   25.49883843696867
H         9.22094674395964    5.70707062056699   26.14024254496588
C         8.52152430704292    6.39877660751349   24.22065062118341
H         9.51625092510757    6.61424553847601   23.86141772244096
C         7.41940249491611    6.62185736019374   23.39736105861970
C         6.15488287533788    6.34469302580070   23.90954675507779
H         5.27214201596839    6.50819526993986   23.31412361278160
C         5.99903326762821    5.84257325334183   25.18964110382293
H         5.02348044345328    5.61789340935997   25.59252344654530
C         7.63673343374616    7.15911700100094   21.99087161885980
C         8.29077324860457    8.54497578015355   22.08539365864651
H         7.65311270399500    9.22379070906610   22.64730392045361
H         8.44123178108542    8.95652908330545   21.08963859883314
H         9.25506894866973    8.49397711215794   22.58283432727543
C         8.55819945926053    6.20243238156352   21.22102885736842
H         8.13012186552373    5.20297001915235   21.18986234592816
H         9.53758298981851    6.13069818720969   21.68417188883966
H         8.69021341818315    6.55257127523684   20.19949930510955
C         6.33056419552799    7.29775013928249   21.20414849151541
H         5.82906544353344    6.33790344251189   21.10561971388216
H         6.54840194887947    7.66849258049596   20.20450634271987
H         5.65739914522399    8.00447915552103   21.68310579556550

