117
CSD_code = REKROQ | q = 0 | S = 0 | Stoichiometry = C41H69N2O4Y | MND = 6
Y         4.81297787649753    0.83351579710363    4.24533900344607
O         4.91145887390984   -0.59200005802971    2.81725288808780
O         4.72580043150769    2.79554282349992    4.71181810827162
O         6.08704072278030    0.17000854885022    5.61977294880167
O         5.67886043606476    2.10779939743831    2.06395978421214
N         2.53817859531255    1.24723837489656    3.38020177165761
N         3.07551514992211   -0.27060142692829    5.74187581814350
C         3.95700790950912   -1.44861512616092    2.52232995780731
C         4.16774485162995   -2.85278408983857    2.47098423531221
C         3.09001367269218   -3.68054340209918    2.19977401449641
H         3.25654272998269   -4.74194519417341    2.18791073459072
C         1.80796759369294   -3.21311709220217    1.93340723466870
C         1.62899380125019   -1.83707982357355    1.91109505508494
H         0.66269984974569   -1.41739882839281    1.66485505996242
C         2.66548761748444   -0.96752884433525    2.19570833507359
C         3.72401720293351    3.56796134231416    5.06903559181078
C         3.80033461855048    4.46078130092891    6.17491763071394
C         2.68811754520200    5.21403511971725    6.49810735953526
H         2.74489324676036    5.87592892350533    7.34518504870039
C         1.48754746116477    5.17228169268829    5.79106515593378
C         1.43616016639752    4.33689199643494    4.68961592628111
H         0.54625305077344    4.27745075984546    4.08065417194084
C         2.52262984621370    3.55734467496181    4.32357325337115
C         2.45208593962130    0.52012575743529    2.09663223127887
H         3.22751140609622    0.93192942314372    1.43970146908535
H         1.46992509126383    0.71475540798825    1.63195862305345
C         2.43626412677169    2.69561323525666    3.09140407030806
H         3.25967066387248    2.95380282671503    2.41695102632550
H         1.48598982889455    2.90048207222709    2.56995485234961
C         1.43550625081607    0.86136651204168    4.26943781768712
H         0.51623157436089    0.67635907753086    3.69200020229247
H         1.24398900421234    1.69786389825120    4.94812419438196
C         1.76771005884750   -0.38776973739513    5.08671178499189
H         0.97050160003623   -0.55110402514591    5.83141747462804
H         1.79443710978832   -1.25302026445336    4.42054459469102
C         2.96739556676789    0.56645448087295    6.94077696018379
H         2.68477137829516    1.58644612689183    6.67961698904278
H         3.93554195828308    0.59151867095965    7.43869867505614
H         2.21849353805889    0.15768521625370    7.63710524843880
C         3.52241665287859   -1.60290667580831    6.15754273615368
H         2.84030843141467   -2.03251040605613    6.90592346702421
H         4.52330510776099   -1.52312801585929    6.58036700266883
H         3.55795277470123   -2.26395595837827    5.29246692618644
C         5.56922828727270   -3.42020045755132    2.67938630595432
C         5.64043500924593   -4.94074559159923    2.49701824969819
H         6.66995266513233   -5.26625234728442    2.63524931882858
H         5.32704856934030   -5.23371624885221    1.49741612549773
H         5.02743836771733   -5.45935819245334    3.23093203920914
C         6.06553649992669   -3.09498025083389    4.09455614574191
H         5.48739073282827   -3.64835216166516    4.83280373190977
H         5.97428052374383   -2.03043368858536    4.30415709569963
H         7.11087679432151   -3.38153155061954    4.19751236313401
C         6.50891510445582   -2.78536988030777    1.64450555581993
H         6.53119593861754   -1.70873385779618    1.78011249576535
H         6.16208906684027   -3.00347700721247    0.63584166073430
H         7.51897766530870   -3.17472266534017    1.75862878583064
C         0.62699093843365   -4.13046551423830    1.65193222041914
C         0.99557308345710   -5.61452739440293    1.72667564378211
H         1.74602999944605   -5.86838935001672    0.98195676570437
H         0.11126042343309   -6.21861625588278    1.53161784085129
H         1.37019502685471   -5.87543060359403    2.71376398657757
C         0.08914047592439   -3.84493758298683    0.24264643369707
H         0.87118851671102   -4.00856456604219   -0.49567147429869
H        -0.25381198065545   -2.81806875594084    0.15142213274022
H        -0.74589990504836   -4.50497885186535    0.01535622463860
C        -0.47353264198571   -3.86223712173774    2.68921146001519
H        -1.32809550805852   -4.51194275219982    2.51029098340955
H        -0.81502091557996   -2.83155865105489    2.64501292726794
H        -0.09795976705729   -4.05427549971174    3.69248730869626
C         5.08750146430915    4.55932232665110    6.98703748261593
C         5.03404247843293    5.63872926487276    8.07438052542994
H         4.84205692989374    6.62017586319931    7.64602623424598
H         5.99470826925607    5.67733468420240    8.58501618790423
H         4.27241156655699    5.41633474440796    8.81852924189601
C         6.25571112697477    4.90009299046354    6.05209091744485
H         6.37548531642807    4.11375983604355    5.31267357967140
H         7.18002941289235    4.99250776616899    6.62009952504649
H         6.06659282514432    5.84142797564465    5.53854887737567
C         5.34800186044252    3.21048790311641    7.67027178847405
H         4.52629077837086    2.96878599992752    8.34303604050738
H         6.26698265736699    3.25566751851802    8.25216599606791
H         5.44391092332399    2.41977706297097    6.92729835402134
C         0.31845176463120    6.03270299907160    6.24619202337683
C        -0.06382709265742    5.64784942752993    7.68270884912091
H        -0.34620705984200    4.59777607416232    7.72783377752748
H        -0.90620922924365    6.24719251034417    8.02292868780599
H         0.76482690585050    5.80610289649242    8.36702230540858
C        -0.92007706994530    5.85522237255407    5.36320004161257
H        -1.26455291872582    4.82349202524621    5.37584882756611
H        -0.71261079764080    6.14895223184920    4.33687536645710
H        -1.72655048299214    6.48377790566523    5.73641052878359
C         0.72776564985304    7.51135425746867    6.19960214700435
H        -0.10343499548054    8.14361860623149    6.50631190818994
H         1.01849867393231    7.78731009307054    5.18814349400943
H         1.56758247649748    7.70848254958713    6.85977995490351
C         7.46786563974033    0.17809616275464    5.50580526813985
H         7.84478648205636   -0.85413511587144    5.67420179113014
C         8.11592614165633    1.09085210420532    6.56292774864680
H         7.83782894063608    2.12505456313506    6.37515846708602
H         9.19942775892203    0.99724352884356    6.53331587436213
H         7.76309205102135    0.80930691979613    7.55175231524911
C         7.91170667208498    0.63110728765943    4.10267797541446
H         7.50820000644137   -0.05531237315167    3.35490667021619
H         8.99824001915830    0.64949665179074    4.01950917007813
H         7.51777518252109    1.63973348581673    3.93331735564088
C         6.13916007712036    3.45118246695181    1.98921063530442
H         5.48160293100247    4.02412306755265    1.31696880202743
H         6.08791882737272    3.88088760849086    2.98925173617257
C         7.55731906741170    3.37781958935353    1.40188135551661
H         8.30478694999756    3.39166927020966    2.19314577398045
H         7.74873672926971    4.21707311142208    0.73615175531200
C         7.56689247092632    2.02914410213011    0.65994332547932
H         8.28588309633979    1.34624935735784    1.10881707107816
H         7.80477946103219    2.13680892946221   -0.39624085288156
C         6.13759615073630    1.50816756164374    0.86020368218063
H         5.49661832159302    1.83056588877779    0.02442510009391
H         6.06540130615474    0.42732025728431    0.97493855620425

