38
CSD_code = REKSUW | q = 0 | S = 0 | Stoichiometry = C18H9CrN5O5 | MND = 8
Cr        8.12636676338683    4.82320455681271    4.41526575885611
O         6.14709565598661   12.47702440301111    1.89273521647122
O        11.56917642390277   12.50894205265988    1.16594597170288
O         7.82246142734173    1.85238701537360    4.46868629972809
O         5.69566919370634    4.73724284197153    2.67996969941757
O         9.53857060603696    4.38574488869937    2.01453108707906
N        10.14168043826625   10.37533706892472    2.67719889896461
N         9.09448753578625    9.78745731933179    3.19224021312627
N         7.93733434703350   10.37735453455314    2.97719336657401
N         9.24940495924020    8.65995763679768    3.87469766681499
N         8.96640897691451    4.57939214498745    3.01440524580782
C        10.36859811416966   12.48256352818561    1.32444039245456
C         9.65084732676993   11.44637634877525    2.06794604359624
C         8.24869834027521   11.44557510484578    2.25738751508723
C         7.34832801989561   12.47051349896112    1.72902004876788
C         8.06721108313220   13.52184254300996    0.96059303256098
C         7.30366121060998   14.54603785556863    0.40659694888185
H         6.23518324181763   14.52118420351532    0.56298726102243
C         7.89535985537136   15.56260280864185   -0.32094626950261
H         7.28688441883196   16.34811323841950   -0.74304081621549
C         9.26919733081892   15.56852891823550   -0.50493428900413
H         9.73809192988904   16.35900714562876   -1.07124568580671
C        10.04076443790082   14.55764847502660    0.03949243380659
H        11.11278088919767   14.54290302819622   -0.09150909277486
C         9.46011777020536   13.52720302669555    0.77392558039791
C         8.22190464160558    8.13407016810514    4.43800665779631
H         7.23682925774321    8.60417408641629    4.38258418157038
C         8.34634118224967    6.92733168786389    5.18812599114530
C         9.55396493666693    6.20908964973054    5.44790248379453
H        10.53108260927355    6.52341659536835    5.11199772296019
C         9.25939785440919    5.17000278489183    6.33551066690687
H         9.97918567585568    4.53412601653030    6.83036244903960
C         7.86993833336583    5.23099858550253    6.64772734286550
H         7.37532423686410    4.64465630824334    7.40985214028365
C         7.30978765617291    6.30078259206272    5.94681863101854
H         6.30561019827032    6.68482391614696    6.06284685078546
C         7.92486865576540    2.99017942064167    4.50676406266110
C         6.58758446526471    4.79920400166963    3.39101829135547

