79
CSD_code = REKVUB | q = 0 | S = 0 | Stoichiometry = C38H34ClN2PRuS2 | MND = 6
Ru        3.12004962060770    3.85175189133349    8.33528406284990
Cl        4.30066375854850    5.57092654112916    7.21663550111637
S         1.58762131661828    2.51937995097659    9.59153372573685
S         3.83057648289345    2.23032599463480    6.78457684571524
P         4.87463256003251    3.63587251215260    9.79526106257102
N         1.61821030869111    4.15560515034415    7.01454139803977
N         2.17094757518474    5.45033622120900    9.35653475647858
H         2.85862226509225    6.20950262185228    9.44959918684767
C        -0.11057292436637    2.46424256317371    8.91291485999296
H        -0.43719322447197    3.46212861728353    8.63579258727804
H        -0.75676145339820    2.04758715321040    9.68020283227295
H        -0.09344556656328    1.81760526687959    8.04066981344089
C         3.70958948231677    0.59945353984512    7.59692901594338
H         4.53402868677541    0.54026440769828    8.30202219679403
H         3.80175356624966   -0.17791960623796    6.84455270149975
H         2.76190183292539    0.51696213142484    8.12241822113742
C         1.69564884549085    5.07192750533484   10.64640190045413
C         1.29402688074568    3.75443807200390   10.86393530977600
C         0.78265817279925    3.35977316283285   12.08851302255810
H         0.48854627924036    2.33066366003102   12.23230096901499
C         0.68511178932317    4.27634842299469   13.12093326059933
H         0.29232914198837    3.96848983827636   14.07752749738864
C         1.12243536989686    5.57622610156183   12.93016413251842
H         1.07867396877551    6.28596221459721   13.74187097140839
C         1.62030233396238    5.97410996970120   11.70205266972490
H         1.97739752892566    6.98416616382730   11.56515732797271
C         1.34392636205533    3.21000331817561    6.08757857465411
C         2.31162832514403    2.21042194583865    5.83930701384443
C         2.13171665075757    1.22962136189710    4.88381198846811
H         2.92824336861140    0.52578128943903    4.69170857252584
C         0.93509109665550    1.13885650995078    4.19798795788890
H         0.78707652060470    0.37022627063846    3.45598710350365
C        -0.08039952204110    2.03608127228290    4.50358897001029
H        -1.04089469453053    1.94418297665557    4.01656798724033
C         0.10953049821772    3.04336642162060    5.42123232769869
H        -0.71572487174371    3.69276927246198    5.66925772490522
C         0.93380538542178    5.30868260201345    7.22185821079256
C         1.12016148286029    5.95182667126662    8.46645601722987
C         0.40875487865943    7.08764997654696    8.80244545563767
H         0.56054118820891    7.54980435714314    9.76766582258314
C        -0.48384093270302    7.64656193798791    7.90465529814953
H        -1.04624693966301    8.52651813827021    8.17496385420285
C        -0.59377662360511    7.09748221853841    6.63536396351736
H        -1.22590622531499    7.57233721316425    5.89907048316073
C         0.10252791709823    5.96121835864585    6.29144768530927
H         0.05778526393297    5.59380926216130    5.27864287126094
C         6.58042129499586    3.88208844787957    9.19369590929603
C         6.87960501126021    3.72110654974081    7.84698229009870
H         6.08902657726497    3.48811458117019    7.14824351060653
C         8.17958455769954    3.88443442874883    7.40079880213050
H         8.40402119005821    3.76799656964663    6.35090595998934
C         9.18683183256983    4.20334169677722    8.29507259541682
H        10.20034998631972    4.33650222724357    7.94538671963714
C         8.89461748165670    4.35431626358643    9.64174223504643
H         9.67998516287824    4.60019408996788   10.34217116906158
C         7.59851658388713    4.19375750221400   10.09248855319002
H         7.37162391937548    4.30943953964763   11.14389356709050
C         5.06912200139887    2.04568564564809   10.67645977371628
C         6.12847428296359    1.18446559421658   10.40399706555204
H         6.90159908426132    1.48583808183820    9.71134751463381
C         6.19778078415827   -0.05493206430624   11.01599145866305
H         7.02675706804030   -0.71280839603501   10.79839036719954
C         5.21083011108633   -0.45372319497065   11.90128130507224
H         5.26900699312487   -1.42041057005664   12.37931417823120
C         4.14388084869153    0.38978224298723   12.16515928891382
H         3.36662118801070    0.08123717272595   12.84949852586097
C         4.06849468070167    1.62487228791381   11.54981178072363
H         3.22686938004372    2.27396355521089   11.74567013894092
C         4.87276342081469    4.89081963478948   11.12492726209337
C         4.73781240138895    4.65454979954012   12.48647578192355
H         4.67918007389692    3.64434470528287   12.86381488515974
C         4.70025168009938    5.71943655151913   13.37168455435191
H         4.59727729730512    5.52847076196422   14.43030175022386
C         4.80223837795439    7.02022728453419   12.91021114643729
H         4.77375237583843    7.84499721676367   13.60738009241146
C         4.95272015337926    7.26162977016602   11.55258178997101
H         5.04740970978672    8.27493256993174   11.18915253657597
C         4.98493923244196    6.20447781923486   10.66380827168067
H         5.11618152990229    6.37392019180179    9.59993550847451

