97
CSD_code = REKXAG | q = 0 | S = 0 | Stoichiometry = C39H52N4OTi | MND = 5
Ti       -1.62127677942741   -3.09207670520274   -1.27330738287564
O        -1.16865663834418   -1.59937043289109   -1.62441494939251
N        -2.87056158315638   -3.05536028875374    0.18489805110197
N        -2.92843581553544   -3.65783216359099   -2.56253593629384
N        -0.18630331289169   -3.91009569837667   -2.78317675523105
N        -0.13005365573424   -3.25372854329610    0.37618801216952
C        -2.56204270815225   -2.65482448948996    1.45702192204551
C        -3.49349887917996   -3.16747115709114    2.33523577852381
C        -4.40911176913077   -3.90774003268849    1.56894551848205
C        -3.99878812888752   -3.82252404595088    0.25356211559890
C        -4.78864228366011   -4.27448265138297   -0.95026105219133
C        -4.01101704258683   -4.42472936629457   -2.23562728925439
C        -4.41537853668989   -5.13301468814063   -3.35025599073033
C        -3.54499697696665   -4.78751047980370   -4.39801435505339
C        -2.64553684665964   -3.87791959819717   -3.88425934440466
C        -1.58828155361865   -3.07158750924120   -4.60008738556903
C        -0.24192982013675   -3.22480804501538   -3.92523924217217
C         0.92488115559942   -2.74890884612490   -4.52542771179848
C         2.14741938507417   -3.08001712937577   -3.97714565532281
C         2.18843428559985   -3.88390556379042   -2.84897376204703
C         0.98707057018025   -4.26320708385983   -2.26195771019821
C         0.91628770787776   -5.00926340670643   -0.93059137116531
C         1.02387629906916   -3.81871484732944    0.02153904520248
C         2.24826237584916   -3.28815764488635    0.40413802440067
C         2.28018484164843   -2.10395074524742    1.13100472724173
C         1.06800270239649   -1.54607957982113    1.50371225798566
C        -0.12815837909908   -2.16844382825160    1.15418492616146
C        -1.44165358385196   -1.67979321904610    1.72967512916880
C        -5.50639072417398   -5.60091994103477   -0.62417660652287
C        -4.52723217358862   -6.74227490259000   -0.37939576066030
C        -5.86630488725373   -3.18090329509609   -1.21825664001774
C        -5.26670130268837   -1.78509837204512   -1.36125845914104
C        -1.45744261964667   -3.53656041023959   -6.06861924312732
C        -0.79970478319732   -4.90539911096060   -6.22254985238652
C        -1.98913878435499   -1.57199816950022   -4.54702389822465
C        -3.36096659586475   -1.29303299006590   -5.14869045138651
C        -0.44807514553530   -5.71903243535608   -0.76531463254258
C        -0.68837282839774   -6.83530082338593   -1.77920857678300
C         2.06628378332309   -6.02028093315822   -0.76143745865927
C         2.06653742846473   -6.71518986687546    0.59780264645951
C         3.57595698696425   -1.45515508063632    1.49741247255969
C        -1.26859178802948   -1.48004596351066    3.25318411048477
C        -0.67001297878339   -2.69102492637589    3.96348874395356
C        -1.78896661013970   -0.32702428368372    1.04972891984867
C        -3.07564876657549    0.29834279367966    1.57413146465513
H        -3.54524234218543   -3.03765642217979    3.39970949071118
H        -5.26426939687199   -4.42648843325653    1.95926360189516
H        -5.24044538745784   -5.81533491516342   -3.43227480680316
H        -3.60645758786271   -5.16690163622851   -5.40047388281334
H         0.87490408266380   -2.14152934555260   -5.41405028053878
H         3.06549141021583   -2.73425906618402   -4.42970674778943
H         3.13951364753176   -4.18246253367073   -2.44099293106835
H         3.17745092627259   -3.76370746070133    0.13633505175733
H         1.05901917641323   -0.63539352308393    2.08052344773312
H        -6.17249703903475   -5.86047563361926   -1.44769103449744
H        -6.12824452246087   -5.46114917171614    0.26019980500799
H        -3.83983164344571   -6.48100011986464    0.42388596753425
H        -3.95460847740956   -6.94203548474441   -1.28309713359399
H        -5.05846007611988   -7.65011059042665   -0.09984722404867
H        -6.40204841398551   -3.44672814116849   -2.13308857401437
H        -6.58150820284756   -3.18357993148132   -0.39156429078284
H        -6.01417581066697   -1.09320457491529   -1.74548798994852
H        -4.92121616648256   -1.41835522818501   -0.39662691276824
H        -4.40922497372335   -1.79605304277981   -2.04034542619635
H        -2.45891975567912   -3.57457280166486   -6.49408444830113
H        -0.88928497671439   -2.79833906337762   -6.63819828366261
H         0.25270691077020   -4.87274548419001   -5.94590091407630
H        -0.86754368316968   -5.23772117329968   -7.25658988217685
H        -1.29641444555514   -5.63789677495961   -5.59176152939936
H        -1.99014330183438   -1.27959306960156   -3.48748885831834
H        -1.23391990030412   -0.97771164122422   -5.06776032377371
H        -4.10871898069680   -1.94017981820446   -4.69725573586348
H        -3.63946772555066   -0.25941094919506   -4.95744568989030
H        -3.36532096700192   -1.45254619944444   -6.22509992702278
H        -1.26394294524317   -4.98383027628284   -0.87883195418243
H        -0.51180846492642   -6.11940274799034    0.25081843908745
H        -0.00883325561877   -7.67219777414358   -1.63112453569767
H        -1.70432591926823   -7.20977686685654   -1.67215427533692
H        -0.57281614115446   -6.46394912684237   -2.79683470752992
H         3.02752768064019   -5.52457104917682   -0.88583758400160
H         1.99440399481889   -6.76393616183930   -1.55664241313204
H         2.98777361976638   -7.28047997265570    0.72053035629513
H         2.00347541252937   -5.98486443749531    1.40202883560650
H         1.23688722019723   -7.40959927006505    0.69433731980518
H         4.39579283214628   -2.16862564440702    1.46431469785940
H         3.52173343918448   -1.01917952715177    2.49230542317567
H         3.79191794960017   -0.65233184963180    0.79239397314764
H        -2.25086316579604   -1.27274453047247    3.67376514158095
H        -0.64502494858999   -0.60409275266471    3.44251935134053
H         0.37004690754328   -2.84276662942725    3.68021255154746
H        -0.71067026254721   -2.54999929663069    5.04184378522920
H        -1.22659292712306   -3.58969421386455    3.71091144473230
H        -1.89239693461493   -0.52977166585604   -0.02571252087215
H        -0.96066544568548    0.37217930908060    1.19041536838409
H        -3.87862197248617   -0.43456399387347    1.56898028919547
H        -3.36426000218574    1.13029015176070    0.93630475331589
H        -2.95438228809644    0.67396705726107    2.58832533026783

