77
CSD_code = REKZAJ | q = 0 | S = 0 | Stoichiometry = C28H36O12Zr | MND = 8
Zr       -1.08534750959200    4.17682093559781    4.02537926779368
C        -1.94374020383570    0.30319403139730    6.03756385208754
C        -1.06271311421986    1.42166492848150    5.54575356207491
C         0.34868440566820    1.23188936454707    5.44354184636529
C         1.14071518988760    2.40471314921229    5.31142774624295
C         2.61660621884075    2.38153462765169    5.65994703429691
C         0.91369554518220   -0.12185566071649    5.54788630647698
C         2.13365371197643   -0.42579695144832    4.69787831194525
O        -1.62892536699941    2.51033871883928    5.26610961552402
O         0.65938700960269    3.53599294818989    5.05244197076953
O         0.40814425986386   -1.01236384487173    6.20339635167728
C        -4.64113820862150    6.15592681735311    5.06103598214798
C        -3.15972480690204    5.98707651283277    5.32708097502120
C        -2.34543404305413    7.11167520383707    5.59795059174383
C        -0.93548505886461    6.95555258924722    5.49593914276098
C        -0.03691431704584    8.13497878298130    5.75846168881823
C        -2.92429968915905    8.44195641014994    5.88350647189082
C        -3.95895943845684    8.49695355299023    6.98883957535675
O        -2.70255592883078    4.81692782062047    5.24242763016356
O        -0.38910456050567    5.85824622421918    5.20043511146103
O        -2.56486922031417    9.45443801499227    5.32035294537490
H        -1.63349666857403   -0.00834685601192    7.03158707318793
H        -1.85909155517495   -0.56687608208264    5.39092246492730
H        -2.97164286811789    0.65738296438600    6.06127125676390
H         2.86612245010849    3.34583534514620    6.09963727919366
H         2.86162173961133    1.58805116788693    6.35675920499622
H         3.21104108117208    2.26742929489192    4.75599527019152
H         1.98330889183453   -1.40355063856305    4.24362348768821
H         2.29383935954531    0.31651207943401    3.92591683997766
H         3.01721366655633   -0.50241398697872    5.32787232899182
H        -5.21891866595401    5.78905371685057    5.90790740942124
H        -4.90895841506435    7.18569389552639    4.85300761240319
H        -4.87926302422869    5.52916206223714    4.20208264460926
H         0.98412672237119    7.78070940783960    5.88109410572173
H        -0.07634287619766    8.81586154710446    4.90711312575259
H        -0.35198761863434    8.69003646162065    6.63738815634565
H        -3.54059672899844    9.10140190394329    7.79305650185720
H        -4.20334075295733    7.51423200024300    7.37394792611725
H        -4.85561669876671    9.00696717136160    6.64342645881999
C        -0.22718167000778    0.30473103593660    2.01044175530637
C        -1.10838329150230    1.42272974368456    2.50303740622732
C        -2.51968703149036    1.23259948533407    2.60523131319150
C        -3.31194410673232    2.40514027310607    2.73858557890655
C        -4.78782169165714    2.38188937015820    2.38995613413384
C        -3.08452016906238   -0.12114839945510    2.49963082856661
C        -4.30412762770019   -0.42617551358617    3.34975264468069
O        -0.54233055618085    2.51130503287027    2.78354094775481
O        -2.83089028834034    3.53621554182212    2.99890273717319
O        -2.57910671301983   -1.01085102612013    1.84293303920953
C         2.47113557609248    6.15657935336413    2.98834971065144
C         0.98967174657795    5.98692028758456    2.72298602427806
C         0.17508184774454    7.11104546299423    2.45106374181121
C        -1.23479293466320    6.95472115873711    2.55311582364391
C        -2.13351918023312    8.13392386003801    2.29008999018013
C         0.75373419963597    8.44121637453114    2.16440809442020
C         1.78774051789859    8.49557773644323    1.05843994086326
O         0.53285346682511    4.81675360102136    2.80903836422273
O        -1.78102000999958    5.85745752980937    2.84922281761700
O         0.39446595040129    9.45402257231355    2.72705443805875
H        -0.53744340767987   -0.00621465776683    1.01624048352125
H        -0.31157429225677   -0.56579858943727    2.65650902502769
H         0.80064155312161    0.65915031504671    1.98687414945135
H        -5.03744584052643    3.34633485715992    1.95065243625229
H        -5.03267107503082    1.58866596422772    1.69278779855138
H        -5.38233519919662    2.26733116838102    3.29380602207100
H        -4.15301556497817   -1.40394222619690    3.80372665797133
H        -4.46476675234595    0.31578411870969    4.12194624378562
H        -5.18770504074150   -0.50330403968296    2.71984474570741
H         3.04877404996281    5.78980895432760    2.14133670591214
H         2.73848429551358    7.18656300983637    3.19593806972337
H         2.70999434259446    5.53023119930135    3.84738827924714
H        -3.15452943236919    7.77949654199350    2.16768689850240
H        -2.09413014215715    8.81522843480394    3.14111188859960
H        -1.81856885518142    8.68861911450001    1.41088914560577
H         1.36884652456039    9.09936979550173    0.25407607512190
H         2.03199759892813    7.51262281068911    0.67387646665956
H         2.68449629008986    9.00589411717304    1.40296245030484

