60
CSD_code = REKZUC | q = 0 | S = 0 | Stoichiometry = C18H37Cl2NbP2 | MND = 9
Nb        1.76479789412864    9.20979325185417    2.92787137127894
Cl        4.03494023338405    9.41189344711594    2.03017745196196
Cl        1.57997167676995   11.41697428101681    3.94236242533131
P         3.11426181218015    8.93083951479049    5.08681185797934
P         1.44061468524707   10.68260743580315    0.84256081509060
C         1.27266332559453    6.88476886168319    3.58785043192301
C         0.18518413479734    7.77669272166067    3.81970783236577
C        -0.25939803745659    8.24354111746806    2.55515522509438
C         0.58255573750764    7.63931382950468    1.56501618785182
C         1.50235783217946    6.79014529723554    2.20729664564044
C         2.56458923091427    5.96562990253748    1.54701172395172
C         4.43670037312841    7.64370930395039    4.93867205076804
C         5.35714815957721    7.43324006093506    6.13457410248052
C         2.18096820956389    8.42587419623537    6.59965824149532
C         1.09883767976674    9.44437853441879    6.94306229144749
C         4.03044421431638   10.37519137903809    5.78115736261992
C         5.09651923106405   10.93675208009362    4.85168660680668
C         2.38193517214248   10.29452761628941   -0.70440795451622
C         2.28025531689111    8.85310101233716   -1.17586137408520
C        -0.29277803636567   10.81690673228015    0.21610005820412
C        -1.19979996159655   11.48276688356286    1.24653362997914
C         1.85417895920878   12.48034421843409    0.95714678802414
C         3.30192494655974   12.76774935787812    1.33111319370739
H         1.73358786006068    6.25378162800681    4.33664991568286
H        -0.37937508146488    7.84586600102677    4.74140232719242
H        -1.23096826418303    8.68199504829047    2.36262405655298
H         0.38843290943279    7.64499193431878    0.50162722197117
H         2.25432961807794    5.66742040256493    0.54597439157473
H         2.77103944836240    5.06862599250428    2.13037005751219
H         3.49355464530973    6.53535509309850    1.46191642341545
H         3.93297195912950    6.70496018959480    4.69208040910287
H         5.01806884148727    7.93545120052640    4.05798749460013
H         6.06645035218024    6.63874138937761    5.90773077181279
H         4.79905283484529    7.13830946380933    7.02070908553550
H         5.92571679422606    8.33078104899791    6.36248318955117
H         1.72986630880025    7.45096457750915    6.39873830842264
H         2.87890619840849    8.31476626869732    7.43407452303730
H         0.39776070040360    9.03032540861714    7.66601996407173
H         0.54800038357721    9.73552549474773    6.04739471006505
H         1.53489810599192   10.34390210345645    7.36985190887589
H         3.28263208456512   11.14751753137481    5.97964934150292
H         4.46938537612149   10.05803486921204    6.73349689186816
H         5.58633014866063   11.79040067311424    5.31751854711872
H         4.64221136109535   11.26940086109791    3.91982364511909
H         5.85190694901432   10.19168046789060    4.61148349992686
H         2.03572189257762   10.98459283491480   -1.48148458598448
H         3.42815672030648   10.51370722090382   -0.47908155023471
H         2.90858086907930    8.70261392490666   -2.05240203231226
H         1.25778033276250    8.59458480308362   -1.44607104984700
H         2.62890362906504    8.18646263030381   -0.38951924072059
H        -0.29227415177014   11.37539932271080   -0.72483513128138
H        -0.64287775867330    9.80312125652720    0.00822364765989
H        -2.24565653961140   11.25845225753715    1.04368790620881
H        -1.07744075146650   12.56254679473706    1.23015584686660
H        -0.95415376640865   11.13305293590890    2.25148938136066
H         1.61037353258913   12.92934874227890   -0.01302863052806
H         1.20066758375518   12.90548576451183    1.72264154613507
H         3.45680802572418   13.84208621074335    1.41443866178978
H         3.99692819457410   12.37649515405520    0.59177002089197
H         3.53204986385543   12.31461146293647    2.29435156007754

