84
CSD_code = REKZOY | q = -1 | S = 0 | Stoichiometry = C32H41N6NiO4(1-) | MND = 4
Ni        0.46915904419999    0.10980714773547   -1.05974947136411
O        -0.29967521824106   -3.47553331364858   -2.70021381509262
O        -0.21168701178833    3.50969909739152   -3.08438686156225
O         1.22306111143802    0.22200825721290    0.55553696789227
H         1.53843928309679   -0.62380330837250    0.89423560348899
O        -2.16513555797456   -0.22443501992925   -6.32013243597598
N         0.36453562156941   -1.85918466476145   -1.19340898070903
N        -0.31283413946755    0.03471895812084   -2.65450233181034
N         0.48326272973305    2.04871886160463   -1.42998202206416
N         0.73768981731909    3.62503744917345    3.43344235041100
N         1.32060952393399    0.09983504932432    4.36980047780682
N         1.23500545758698   -3.66472039291551    4.28120054932936
C        -0.15921768668725   -2.30546936535641   -2.34871889055946
C        -0.60667309851367   -1.14867842647259   -3.19895929209871
C        -1.22635741878075   -1.24347451322482   -4.42895149380104
H        -1.45002922291985   -2.21089781326961   -4.84806751409432
C        -1.55140065467045   -0.06953794757278   -5.11917378022574
C        -1.21931576990630    1.15551644000786   -4.54358611428539
H        -1.41319128033575    2.10726542158277   -5.01100210827577
C        -0.59595401870258    1.15949746325328   -3.30553112029909
C        -0.08895666426994    2.38458285564842   -2.59830876634982
C         1.19605314627236    3.04654203740259   -0.75331507771130
C         2.20612144438689    3.74721616840180   -1.41640735862835
H         2.41881047761166    3.51593072802399   -2.44961572522204
C         2.92768382875029    4.71888334346067   -0.75471170494038
H         3.71209516329342    5.25500080244814   -1.27314649735008
C         2.65963979769646    5.00595566094582    0.57222129890447
H         3.23365542413733    5.76471747422089    1.08934057647083
C         1.65261368993542    4.32321058069383    1.24399299810955
C         0.92140452727982    3.35338042376789    0.57754122583576
H         0.14539582261526    2.81072837076397    1.09251618638507
C         1.34788061805987    4.69638507973145    2.67321529640377
H         2.27427556870669    5.06634767266239    3.15874260852057
H         0.63558190273348    5.53231147968581    2.66421400392907
C         0.26505277753482    4.09417970395904    4.71291551217697
H        -0.19059481346971    3.26880602639556    5.25729137407112
H        -0.49046258598600    4.86648643740083    4.56202573084741
H         1.07281099249921    4.51601398083676    5.34069465625766
C         1.59163440551279    2.45331358360660    3.56596521905042
H         2.22950674694654    2.52665214145110    4.46189978471990
H         2.24676726335665    2.39657343389964    2.69782616461952
C         0.72777641351197    1.18494597524053    3.59993498877628
H        -0.27385451280543    1.44378173362219    3.98680879199243
H         0.61855737658923    0.85220503710474    2.56540641904153
C         1.25782315817507    0.34029858901570    5.79330263603512
H         1.79236592805677    1.25433713245102    6.04439454935323
H         1.73154240558723   -0.48457884320732    6.32479674617096
H         0.21820456735035    0.43605308210317    6.16052554527944
C         0.72931367911629   -1.18815870928400    4.04137772633533
H         0.35293955000995   -1.14645802886734    3.02089788997583
H        -0.12346472791771   -1.40908945704964    4.70777140382190
C         1.76946933846546   -2.32072947197958    4.13241968878757
H         2.38038832839105   -2.30669354922137    3.22723577370397
H         2.43418997204491   -2.13911774880449    4.98027896597446
C         0.69383597392277   -3.92937507928712    5.59411629070514
H         1.43379031685786   -3.65874617222083    6.34693187085258
H         0.48753170837016   -4.99765612315775    5.68069014226744
H        -0.24030808392820   -3.38677368546054    5.81265349608831
C         0.28881979834781   -4.03790344186346    3.23506763373379
H        -0.65072174912108   -3.46399310307390    3.30727217911921
H         0.04393605116001   -5.09488271157364    3.39744539248069
C         0.87590781790641   -3.87861955108055    1.85888553575460
C         1.94371808205983   -4.67805867951956    1.46754131452027
H         2.35558269109290   -5.38957760552647    2.16844281719795
C         2.46928324665842   -4.55831586882690    0.19313622732482
H         3.29462402020490   -5.18944077378557   -0.10859094623630
C         1.94863340204929   -3.64166429491482   -0.69959767173693
H         2.35386513396144   -3.54852511048325   -1.69594403985040
C         0.88901990149188   -2.81963107768578   -0.31756908885720
C         0.35707342591645   -2.95819708881228    0.96462683631787
H        -0.48162751764567   -2.33164581265532    1.23810132841497
C        -2.48785134627779    0.93212435204791   -7.06356049211502
H        -1.58071838360286    1.51526975176894   -7.27399132461216
H        -3.18356200123519    1.56395990114135   -6.49391119721013
C        -3.13749026077178    0.48734875063714   -8.37565032608466
H        -3.96597632333606   -0.18176837805960   -8.12167392003884
C        -2.13143488173878   -0.28240842291244   -9.22673139571551
H        -1.72859708000988   -1.11572268245953   -8.65791294262715
H        -1.30930723646612    0.36728743816769   -9.52093722682445
H        -2.60705510777922   -0.66873062722187  -10.12553678156350
C        -3.67979675006195    1.69845628458124   -9.12861832972214
H        -4.42118372259401    2.22545931409643   -8.53230587193378
H        -4.14575585421513    1.38516782899977  -10.05995653121115
H        -2.87324779228535    2.39027956272769   -9.36292132649761

