28
CSD_code = RELDAQ | q = 0 | S = 0 | Stoichiometry = C7H13ClN4OPdS | MND = 4
Pd        6.01152161287134    6.05049109909928   17.76250902035178
Cl        5.08124579426469    6.67668757164725   19.68781025546986
S         4.28914958683081    5.04577453605420   16.60290010013362
O         7.99712134338811    7.41433746018971   19.55534777470983
N         7.78011520644353    6.79552029659357   18.35424863501705
N         7.06433486128108    5.62311444859515   16.20509257273222
N         6.57416659253115    5.00494157869298   15.13820109884936
N         4.73480564671203    4.08578056234634   14.17299032893361
H         5.34889816450265    3.84916857402379   13.40755065754479
C         8.72655009896600    6.65634578772713   17.48058835823600
C         8.32431930239222    5.98564302347664   16.26137931528328
C         5.28908132712255    4.69830255155051   15.22261563912614
C         3.36115640863759    3.65108010939937   14.10003362213932
H         3.24601908261811    2.69050116098152   14.61844252545979
H         2.74606645625344    4.38741516514735   14.62476915985977
C         2.92568566434251    3.52208764054430   12.64957651107388
H         3.02894616148880    4.47436697818422   12.13526032005224
H         1.88493984745084    3.21545704735902   12.60378315489155
H         3.52667484428642    2.77692107313968   12.13240103033258
C         9.24830849833458    5.70749985642001   15.11786031663473
H         9.28711149542311    4.63379420569407   14.93614878653460
H        10.24857164219395    6.07830348508731   15.30859676282790
H         8.85404621331007    6.17064409031392   14.21380369602368
C        10.11921620034356    7.14840371618866   17.71117532411630
H        10.17613501803720    7.61760851402217   18.69005944640200
H        10.39495230560659    7.87666065777690   16.95054358914735
H        10.82527722581386    6.32081561185423   17.67137674317106
H         7.10318339855330    7.36873319789076   19.99703525494581

