29
CSD_code = RELGEV | q = 0 | S = 0 | Stoichiometry = C10H8Cl2N4O4Pt | MND = 4
Pt       -0.63084983135776    0.09058704948078    1.83163403512709
Cl       -2.55289230183046   -0.95322955851933    2.56846997403379
Cl        1.29913386973218    1.12272105625175    1.09729392042696
O         2.31447693191515   -6.00364287422983    2.14382087719103
N         0.36893097484365   -1.53396301266297    2.15818564697864
O         3.32177961017723   -5.05185855550044    3.79160736151761
C         0.15768495823246   -2.61998045122629    1.40743890437152
H        -0.59499150386650   -2.53569549212496    0.63159881250709
N         2.53513746069334   -5.06482691400430    2.87336722605559
C         0.84708705484221   -3.79988265718664    1.60385927665163
H         0.66914553168207   -4.66964311730920    0.99083828081180
C         1.78768947001417   -3.84622428930685    2.62639784195753
C         2.00952383706049   -2.72062872512117    3.41143407480800
H         2.73845605436137   -2.74889197020914    4.20629015945693
C         1.27688490324402   -1.58276532903038    3.13846047754655
H         1.42095616106338   -0.67476783412803    3.71322802578192
O        -4.67296525195054    5.20193066955169   -0.04426445257626
N        -1.63286589192209    1.71858134975134    1.50497282652102
N        -3.80361726514640    5.24933089732460    0.79485043272535
O        -3.50245166977850    6.22164535679196    1.44750847204727
C        -2.63807134594910    1.72886021245437    0.62261587147184
H        -2.85951248195170    0.79112825360609    0.12632026584356
C        -3.37665708752789    2.86460032397896    0.35605006495613
H        -4.18511291423292    2.86004754929338   -0.35828700536394
C        -3.05472595460354    4.03103796847952    1.03998345028284
C        -2.01255230260750    4.02581655575316    1.95966888436756
H        -1.75565732319369    4.92732530328110    2.49369640510108
C        -1.32638216378772    2.84434741106681    2.15907770521260
H        -0.49658152815526    2.79264082349449    2.85438218418743

