123
CSD_code = RELLIE | q = 0 | S = 0 | Stoichiometry = C62H34F20N4P2Ru | MND = 6
Ru        0.00023434466746    0.00035562986440   -0.00039412257472
P        -1.47180506923093   -1.41013508778288    1.11861777797996
F         0.73792052116725    0.88582910365356    5.53383005822977
F         2.24203280958685    1.70574713267911    7.62429788429526
F         4.79968876232660    2.56620696237072    7.21697819907970
F         5.82852566102248    2.60973259577536    4.68928783446316
F         4.30306653098370    1.81080216558175    2.59322397079576
F        -1.57744234422989    4.84622881966064   -1.53056505701509
F        -2.96284804810939    7.17884966370190   -1.49608069273020
F        -4.85188748603335    7.61194007033962    0.42557630243310
F        -5.34682774313617    5.68850481054931    2.29724816895839
F        -3.98020673940040    3.35740213239911    2.24068109578302
N        -0.19289435127059    1.49071641302450    1.38391804235678
N         1.54155372132682   -0.79248944865667    1.06883263976395
C        -1.06237499405315    2.53298625050847    1.33045625148942
C        -0.84060815331385    3.40593024303434    2.45190992797577
H        -1.38270426057247    4.30712873557343    2.66039796926023
C         0.17829362623351    2.87630553984633    3.16435454191094
H         0.61988558105304    3.26683560244250    4.05991853280328
C         0.58560011285322    1.67784381998725    2.48116592970116
C         1.67961602287439    0.89201556120598    2.84388001119629
C         2.10969381006294   -0.26031820415041    2.18187265661475
C         3.16873517220199   -1.11829250098475    2.64046459767287
H         3.78106549677359   -0.94726692957026    3.50400366685573
C         3.21520986541846   -2.17117326289819    1.79173980698981
H         3.88869273598280   -3.00518335231746    1.82043533888388
C         2.19171969948445   -1.95571921840654    0.80500324583695
C        -1.96966340211490    2.78086293959749    0.30019564346498
C         2.48265060103202    1.32802994858808    4.00876896648131
C         1.98109322790736    1.31804009500454    5.30750026417268
C         2.75053763857971    1.73177439037394    6.39017716288788
C         4.05570133780388    2.16892933186293    6.18524956865651
C         4.57931146127295    2.18846119658334    4.89530339157290
C         3.79207499541278    1.77091626561271    3.82862386342022
C        -2.74214529249741    4.04297700388028    0.35311820208679
C        -2.51061361409961    5.04105776179031   -0.59216351688874
C        -3.21059294721981    6.24166590620623   -0.57911993569372
C        -4.17322951495144    6.46537468004046    0.40165759484614
C        -4.42219454721651    5.48408574695217    1.35647629409758
C        -3.70902773138839    4.28993628987410    1.32388642524097
C        -2.21632791749336   -0.87794340745247    2.67876009949281
C        -3.39124512841698   -0.11534698435926    2.65873329404702
C        -3.87871951030914    0.40558454725024    3.84652539834665
H        -4.77834129265229    1.00277562085062    3.82550031308630
C        -3.22855529424957    0.19191127225850    5.05229042738254
C        -2.07718742109653   -0.58471337633833    5.05728731312419
H        -1.56645356802288   -0.76323248428192    5.99192375006057
C        -1.55503429438877   -1.11707321085385    3.89161017451096
C        -4.13900475367140    0.11113148249132    1.38235343426744
H        -3.45140416245925    0.31404303734139    0.56307246341751
H        -4.82262293785280    0.94926252259674    1.48264110713081
H        -4.72278718918054   -0.77384872804164    1.12442003567378
C        -3.75032767888926    0.77020643570702    6.32984998047586
H        -4.56356164219948    1.46562544460199    6.14007043960441
H        -2.95549572668776    1.29118321625821    6.86070223314276
H        -4.11754959357821   -0.02454719461136    6.97912003892438
C        -0.32060360628958   -1.96206214271957    3.94691844276256
H         0.23188197441765   -1.77048280091032    4.86312103124620
H         0.32825075623031   -1.75776608459982    3.09705053413003
H        -0.58549003382481   -3.02052968396785    3.92564168493981
H        -1.02602262419324   -2.68647501189988    1.44321719701704
H        -2.58355433387425   -1.87805266309564    0.42671721483271
P         1.47251922426779    1.41060548916715   -1.11840323707505
F        -0.73793978200969   -0.88587436134199   -5.53380172690343
F        -2.24200300658254   -1.70573468936111   -7.62432998198918
F        -4.79970061683739   -2.56612424839117   -7.21710042623330
F        -5.82862283319859   -2.60964913324387   -4.68943900092412
F        -4.30320572194712   -1.81078767637200   -2.59332189172121
F         1.57731149439634   -4.84627707694506    1.53049648826509
F         2.96272386603875   -7.17889705073380    1.49599819793513
F         4.85183203004972   -7.61193077522994   -0.42560678424164
F         5.34685244721816   -5.68843330322571   -2.29719570104594
F         3.98021632075005   -3.35732433172974   -2.24061083192816
N         0.19256915991649   -1.49094127975452   -1.38378715289702
N        -1.54196851563106    0.79234764215256   -1.06874348406918
C         1.06217577811625   -2.53309786184355   -1.33040739254686
C         0.84051616810390   -3.40596026965053   -2.45192938401394
H         1.38271904890901   -4.30707266412911   -2.66048839662853
C        -0.17839239724852   -2.87633274752745   -3.16437037534915
H        -0.61988605254373   -3.26678221469056   -4.06000313137604
C        -0.58581985430255   -1.67796011982180   -2.48110914966392
C        -1.67978921093989   -0.89206734258440   -2.84387772378050
C        -2.10997692236214    0.26022260869897   -2.18184757137887
C        -3.16891231711333    1.11828785138395   -2.64050391911738
H        -3.78115685203137    0.94732826929135   -3.50411020839165
C        -3.21538533244362    2.17117425236083   -1.79176813521024
H        -3.88878040976978    3.00525030406024   -1.82052247301853
C        -2.19198353174963    1.95565744559243   -0.80496499751831
C         1.96952156302897   -2.78089690985264   -0.30019192734505
C        -2.48274912381611   -1.32804456433340   -4.00881279763790
C        -1.98113348085889   -1.31805515332385   -5.30752151115104
C        -2.75055056775529   -1.73176080255158   -6.39022713881911
C        -4.05573432107843   -2.16888061064355   -6.18534460708905
C        -4.57938880019323   -2.18841562643141   -4.89541536735418
C        -3.79217863168390   -1.77090599494477   -3.82870887281900
C         2.74208397550599   -4.04296830096305   -0.35311568962433
C         2.51052934320921   -5.04107417515473    0.59213284861262
C         3.21050911219168   -6.24168184270197    0.57907859293389
C         4.17317927642732   -6.46536072717430   -0.40167348779641
C         4.42218459177969   -5.48403854758877   -1.35645065375837
C         3.70901392882047   -4.28988779407459   -1.32385076158842
C         2.21628668428889    0.87767919350270   -2.67867052747469
C         3.39137901664580    0.11536728668987   -2.65863944572195
C         3.87907183900234   -0.40530742508393   -3.84644452107170
H         4.77861514966382   -1.00260806848085   -3.82535049783257
C         3.22881660253341   -0.19186282490775   -5.05220396192448
C         2.07729570499557    0.58454434019723   -5.05723396881098
H         1.56660390655970    0.76303449014285   -5.99190290453267
C         1.55498964608934    1.11677358353274   -3.89155752900039
C         4.13907628427274   -0.11108716481303   -1.38220946161815
H         3.45101171285561   -0.31517604137026   -0.56297462955448
H         4.82378990846342   -0.94888846600164   -1.48308000728811
H         4.72207847021947    0.77488691400665   -1.12381581831651
C         3.75059073106367   -0.77029523474883   -6.32969999374821
H         4.56387054889393   -1.46562805327383   -6.13988516474281
H         2.95582171830269   -1.29138333854965   -6.86049325435436
H         4.11773038958352    0.02439977830772   -6.97903934191529
C         0.32060925434648    1.96183876196885   -3.94701211055226
H        -0.23174391603562    1.77032349794001   -4.86329602550264
H        -0.32838516461309    1.75751181650251   -3.09727410625962
H         0.58548842871961    3.02030757229884   -3.92564364540583
H         1.02589683347865    2.68651570382313   -1.44321891933051
H         2.58422568552381    1.87885340190464   -0.42675951175686

