145
CSD_code = RELLEA | q = 0 | S = 0 | Stoichiometry = C68H70N4P2Ru | MND = 6
Ru        0.00042192092980   -0.00004295099607   -0.00038866918481
P         0.88060550971948    1.81698366013203    1.05954168680711
N        -0.80129075857824    1.47295678744446   -1.17799910361490
N         1.63980591733392   -0.08262395574282   -1.21927082569238
C        -2.90379950513311    1.83287217459835    0.04328109840790
C        -1.99857053975930    2.08990891617489   -0.99024127347882
C        -2.19152859211204    3.07339603367290   -2.01978730527786
H        -3.04795859725267    3.71309240542088   -2.10928589816598
C        -1.09866860836350    3.02937711377773   -2.81872855320492
H        -0.89908504435851    3.61337960941578   -3.69620911520780
C        -0.22085567520777    2.03160364229575   -2.27342136206282
C         1.02169646876007    1.68605975646105   -2.81171974824398
C         1.87570700219013    0.70566822434412   -2.30021901723776
C         3.17177891334147    0.39706633292202   -2.84017439588290
H         3.61992950312996    0.88567127471870   -3.68365182133947
C         3.69466885715567   -0.58684403596628   -2.07185672611348
H         4.65388370007210   -1.05805342104610   -2.16541022884190
C         2.72153735976237   -0.88842677490556   -1.05727143749375
C        -4.16449635697608    2.60598258652333    0.05061612068113
C        -4.45094774979975    3.48989757684962    1.08610041961898
H        -3.73768650901110    3.61293228020854    1.88873359629150
C        -5.62844271910757    4.21195947157216    1.08836861356582
H        -5.83420410118758    4.89798623753347    1.89829632527119
C        -6.55596745492167    4.06941249459938    0.06270942098385
C        -6.26972120600978    3.18343573551720   -0.96738742791387
H        -6.97965081640392    3.05453058113744   -1.77257582866560
C        -5.09023389941148    2.46240347570910   -0.97695641754297
H        -4.88504370910355    1.77122823692351   -1.78196218024155
C        -7.82280112956688    4.87015113418986    0.06753717778384
H        -8.25985111627821    4.89447349877833    1.06406381627250
H        -8.54957893101270    4.45371673312538   -0.62572824462698
H        -7.61670049081415    5.89862573204917   -0.23106879069069
C         1.45648497116439    2.40124198992775   -4.03152156125592
C         1.73954018170458    3.76287913049393   -3.99932272215116
H         1.64950462659719    4.30005589450842   -3.06578040049331
C         2.14317441511776    4.42298175990387   -5.14350744595003
H         2.36516022666035    5.48028922476000   -5.10157065262137
C         2.26997048258658    3.74682887986959   -6.35178658900023
C         1.98357609607611    2.38864346700325   -6.38146389242578
H         2.07414857066797    1.84462100121622   -7.31140113658397
C         1.58505607942317    1.72188729317343   -5.23766083324535
H         1.36336391348965    0.66481652397181   -5.27512284544780
C         2.69183520523735    4.47945518055943   -7.58935680814293
H         2.95265757757822    3.78461781522266   -8.38389894188719
H         3.54968794311245    5.11766802940327   -7.38458652659754
H         1.88064596216821    5.11619629074128   -7.94367321321597
C         1.87980688549935    1.83839648370626    2.61956529297221
C         1.03834830958031    1.19527430049601    3.72270960705753
H         0.12546338307033    1.78068571939282    3.87766892521878
H         0.74194971961352    0.18849577564912    3.41814619446848
C         1.85432695854114    1.13183067910226    5.01157307458973
H         1.25376461412349    0.66719503761390    5.80194174615483
C         3.11062011275013    0.29503779014475    4.77112699506715
H         3.69096210358610    0.22169398389267    5.69388534967078
H         2.82702211674202   -0.71640264717133    4.46961551885530
C         3.95473912717136    0.94547329528043    3.67518306607044
H         4.86052149686792    0.35078670806293    3.50907252152581
C         3.14199549453711    1.00819320939709    2.38405505762403
H         3.73606355549024    1.45707006609872    1.58077469419193
H         2.86198008549776    0.00061758821614    2.06722449756082
C         2.24842888727083    2.54773399482723    5.43150238040288
H         1.35148779133818    3.14397622974858    5.61566317997877
H         2.82423668159023    2.51484314991342    6.35923806264444
C         3.08494546314224    3.19233528334827    4.32626416846313
H         3.36618510649870    4.20851714064920    4.62639478567940
C         2.26889211276528    3.25684816126986    3.03322343245988
H         1.37111907444194    3.86194614081731    3.18956274661028
H         2.85995180087073    3.72926552614773    2.24334032179695
C         4.34704631520708    2.36142822033926    4.09626986588644
H         4.96084530816552    2.82293728590614    3.31905925423408
H         4.93911357838523    2.32680699868815    5.01367992476339
H        -0.02235198704517    2.83111473901813    1.39560257224950
H         1.68943495645021    2.66613909190164    0.29660576189602
P        -0.87958521202946   -1.81716406268729   -1.06009346449962
N         0.80223989575891   -1.47296608825321    1.17724858625877
N        -1.63889197851058    0.08257183928267    1.21853964939010
C         2.90506912869186   -1.83239581414656   -0.04362064947501
C         1.99971498890764   -2.08962643432831    0.98973400765011
C         2.19267179595114   -3.07312260397086    2.01926990354183
H         3.04925239009612   -3.71259353263995    2.10894770637313
C         1.09958883218609   -3.02944947197787    2.81792430861627
H         0.89993923227398   -3.61356547963942    3.69531513618847
C         0.22167618636253   -2.03183094493276    2.27248872119046
C        -1.02103345094064   -1.68652937234424    2.81059827357769
C        -1.87495320244008   -0.70596394175624    2.29927155525308
C        -3.17097078128751   -0.39724465269697    2.83928473297886
H        -3.61924638093314   -0.88598822483653    3.68261431190371
C        -3.69361301953919    0.58704036259354    2.07127273818578
H        -4.65271056203866    1.05845870382987    2.16497333577589
C        -2.72042247113912    0.88868244535685    1.05676387036034
C         4.16601698541433   -2.60510934064441   -0.05062572204417
C         4.45292169553890   -3.48916148989716   -1.08586907084283
H         3.73982966502751   -3.61260857984749   -1.88859005807466
C         5.63065700066530   -4.21083502982937   -1.08779111693747
H         5.83677296217622   -4.89697549698665   -1.89753341125768
C         6.55797175844106   -4.06775609118844   -0.06201576843118
C         6.27127838656502   -3.18163163226970    0.96783024249999
H         6.98103992716678   -3.05230991658470    1.77310063251505
C         5.09154954559124   -2.46098862166212    0.97705492837178
H         4.88599916474805   -1.76969867916742    1.78187116504065
C         7.82505424694058   -4.86810515530260   -0.06644946939635
H         8.26230596303018   -4.89248127813638   -1.06288685431083
H         8.55157042444167   -4.45132044870652    0.62688019955871
H         7.61921123956948   -5.89658681862359    0.23230796316823
C        -1.45602322943732   -2.40213976004276    4.03007209356681
C        -1.73885575288612   -3.76381285136707    3.99733025056167
H        -1.64848348566342   -4.30065289216580    3.06362547507713
C        -2.14268747472655   -4.42437294805371    5.14117906487898
H        -2.36450412673828   -5.48169877628856    5.09881767489230
C        -2.26989891580155   -3.74865417333316    6.34965790376271
C        -1.98370804321801   -2.39043815717413    6.37988089306595
H        -2.07458560900800   -1.84675353983758    7.30998551882617
C        -1.58499489063647   -1.72322318305532    5.23641277232523
H        -1.36344683142573   -0.66613753158799    5.27430534075905
C        -2.69199590059022   -4.48176894375117    7.58685850510353
H        -2.95305830592033   -3.78724396220193    8.38159497272570
H        -3.54975367201679   -5.11996915747601    7.38164962314849
H        -1.88084257406884   -5.11858119971029    7.94112769570491
C        -1.88044137879827   -1.83852849040981   -2.61904546516434
C        -1.04020217881906   -1.19481833740627   -3.72277543855856
H        -0.12732542582209   -1.77996462783830   -3.87879521820679
H        -0.74375487734326   -0.18807654988168   -3.41813425971142
C        -1.85741415599567   -1.13113706782557   -5.01083784137482
H        -1.25772044108994   -0.66606048832956   -5.80160545043595
C        -3.11369438125777   -0.29474900941501   -4.76890087365763
H        -3.69491771541110   -0.22120075227591   -5.69108984155636
H        -2.83006463582679    0.71664834935445   -4.46727063745369
C        -3.95661532491621   -0.94581282726110   -3.67240475353035
H        -4.86241135170787   -0.35144283061598   -3.50523751202913
C        -3.14266010249043   -1.00877964712862   -2.38204958255831
H        -3.73586522138247   -1.45814053923633   -1.57839637852248
H        -2.86265121099721   -0.00124349270423   -2.06507935719300
C        -2.25149666790944   -2.54700882367949   -5.43088912303119
H        -1.35455242041432   -3.14293363235001   -5.61607115252103
H        -2.82816881451557   -2.51397307781462   -6.35808406147067
C        -3.08680815479682   -3.19220491510609   -4.32508208258954
H        -3.36804889992086   -4.20835695488110   -4.62530832783942
C        -2.26955337883116   -3.25694418308465   -3.03280103299697
H        -1.37178086018233   -3.86177805463219   -3.19016929413057
H        -2.85977536920892   -3.72976609477256   -2.24252842373403
C        -4.34892546655029   -2.36171823879364   -4.09365269843026
H        -4.96192268827328   -2.82366726066048   -3.31606855046217
H        -4.94180947080952   -2.32692047996834   -5.01053086595083
H         0.02320813063203   -2.83109921167148   -1.39714446925052
H        -1.68735002768092   -2.66682283421450   -0.29659080919497

