62
CSD_code = RELQAC | q = 0 | S = 0 | Stoichiometry = C25H32N2O2Pd | MND = 4
Pd       -3.20864952961933    2.50706157451829    0.94239942752251
N        -3.14028497934233    3.28116967084066    2.75188537281445
N        -1.94234936616672    4.48756109928442    4.21783853335834
O        -3.11730055769674    1.68323133149053   -0.90738661237871
O        -5.26906305596358    3.03701603950831    0.52974649757416
C        -1.25907696619415    2.33507012421075    1.30417864768072
C        -0.85061398117720    2.91518412894700    2.51069309674651
C        -1.94975123739154    3.58719661676911    3.18030615744352
C        -4.14821402122946    3.81454936944453    3.63583407988022
H        -4.91915013069168    4.33431591619609    3.05393783995979
C        -3.34088254524325    4.78363636568738    4.53128416418115
C        -0.98702586112570    5.59030574618471    4.20383520060611
C        -0.90438008830872    6.22793885281865    5.58711262735867
C        -1.31679172006431    6.62448778135795    3.12121600374466
C        -4.83482010974063    2.64000493078699    4.39156126178037
C        -3.81463882245244    1.84643185226447    5.21045346507928
C        -5.46357335417223    1.70480382967911    3.35186736391467
C        -5.93693361313783    3.18911298259307    5.29992982359506
C         0.46557377246369    2.72417881346510    3.01516893294891
C         0.84008635332948    2.97962915546941    4.35079579500083
C         2.12915651379981    2.78681538406109    4.76933338112183
C         3.10636442754018    2.32577093577655    3.87688924064791
C         2.75772395754248    1.99914399902636    2.59573990904826
C         1.43244443033884    2.15619394173343    2.14214916620496
C         1.03392612822018    1.71563242820737    0.86112981761198
C        -0.28088386049095    1.74884242633439    0.47921098613673
C        -3.69652431584592    0.91023124476942   -3.06008761881837
C        -4.04696564094973    1.60792604573881   -1.75707112923364
C        -5.35141755090347    2.09283671905339   -1.64474677109625
C        -5.87291467352868    2.77554562845202   -0.54048270785072
C        -7.31709045514428    3.23551330111322   -0.64735937285135
H        -3.51777986433753    4.61478034639675    5.59486233130954
H        -3.58509342220356    5.82377980906132    4.30267115815025
H        -0.01506961189817    5.15588730655311    3.95551025270336
H        -0.68241771294900    5.47403887854107    6.33829564428875
H        -1.84002915649247    6.71544332018523    5.85001133932311
H        -0.11328418935926    6.97267038762148    5.60067267771812
H        -1.49105219541983    6.12252168746510    2.17046212625848
H        -0.48013672989513    7.30773741069561    3.00354596418070
H        -2.19733405455733    7.21009503251814    3.37549601827241
H        -3.34342570594079    2.45933131039616    5.97451912337588
H        -3.03822832677492    1.44807473870588    4.55952393233790
H        -4.30815262661570    1.01302784622803    5.70496592440750
H        -4.69140786740327    1.29624517045810    2.67832572326745
H        -6.19376118733868    2.24150129874370    2.74969430905751
H        -5.96222606401682    0.87422472046157    3.84703405316054
H        -6.66099701764956    3.75718706966658    4.72032418409172
H        -6.45823356146758    2.36945506530215    5.78866212879246
H        -5.53245796505544    3.83852173436650    6.07261386240660
H         0.08239771308530    3.27954868455574    5.05837860867219
H         2.39810806910814    2.97808829768794    5.79834681197677
H         4.12344122939404    2.19909410496228    4.21801349607253
H         3.49136187054927    1.59170027541770    1.91437295465891
H         1.78779463407523    1.30266090229248    0.20418987678969
H        -0.58013759765275    1.33168574961301   -0.47448920915881
H        -4.31865674284315    0.02682769299663   -3.18668091584961
H        -2.65127224608119    0.61326811491904   -3.04585569775742
H        -3.87165538402144    1.57584882944527   -3.90198094098932
H        -6.00838797085703    1.93934995073367   -2.48778253449692
H        -7.97481250825458    2.36982565043207   -0.69539066933084
H        -7.57846536904532    3.83397343134459    0.22206501987597
H        -7.46190758472333    3.82446694644976   -1.54974013329154

