51
CSD_code = RELSEG | q = 1 | S = 0 | Stoichiometry = C16H24N8O2Re(1+) | MND = 6
Re        1.77118402560289    5.36015615854300    2.75502902229965
O         0.37964170069431    5.20977349773319    1.80934171748461
O         3.15592812642936    5.53525242754442    3.70656273023639
N        -0.21368387620530    7.36865727905454    6.08011750825874
N         0.54004506867481    6.29430602340964    4.33875815204185
N         1.35227443790482    1.49915820133020    4.73533757037818
N         1.36351335979447    3.36572117347243    3.60785446208246
N         3.80986235045129    3.46394175681307   -0.59949310039948
N         3.00756064215185    4.40058172118125    1.19895345088358
N         2.10427299097020    9.27150124231524    0.85022523757675
N         2.18630358343312    7.34538014508258    1.86913009904712
C         0.88765065126348    7.04426776251857    5.36886978718338
C        -0.81513462787533    6.13739563840382    4.39110411132922
C        -1.29970894420185    6.80332786734840    5.47213753484744
C         2.25551181467221    7.48225111904080    5.72195865179419
C         1.94346205189709    2.70523016269167    4.59370260577417
C         0.37799420553823    2.56320224060416    3.10881256161210
C         0.35828095836361    1.39544902903209    3.80306705819928
C         3.06561794351158    3.17375752727504    5.43534817053384
C         2.72048219248621    4.02915562329702   -0.03560706312483
C         4.31105915810408    4.06556666741081    1.42873315290719
C         4.82523060329796    3.48111614801192    0.31513384167266
C         1.42447133257284    4.18737375713595   -0.73016597286730
C         1.39950929741054    8.17718130581991    1.21079224007944
C         3.42227893995922    7.92177135056651    1.93252089232471
C         3.38616831751794    9.12500189965459    1.30182726587560
C        -0.03219838622215    7.97902532579595    0.89698437100130
H        -0.22867250651517    7.93137914054647    6.91603646487694
H        -1.32905532128915    5.56630593539773    3.64481318845686
H        -2.29467793531013    6.91561452044135    5.84804259706364
H         2.45750191915594    7.31704452720417    6.77804050309342
H         2.39334437600532    8.54020304286156    5.50277354744458
H         2.95600583730464    6.90329649986059    5.11643307013966
H         1.60298296494697    0.79833936042288    5.41474691555353
H        -0.23644175258191    2.89597231779009    2.29678980508447
H        -0.26003791654473    0.52745836110426    3.71282406058365
H         3.88553808321650    2.45821024987167    5.42380983707596
H         2.74450895285946    3.31713062534709    6.46592788190310
H         3.40710528197985    4.12930055309619    5.03067855943229
H         3.86130711546412    3.09414229969523   -1.53553997804215
H         4.76987869882730    4.27830128341652    2.37313242880109
H         5.79770604522465    3.08851301881191    0.10543600056702
H         1.07371570066209    3.23408502769384   -1.12079422525092
H         1.51038631611200    4.89074101239787   -1.55697440983537
H         0.70459180932170    4.57368471389816   -0.00498610200602
H         1.74362460489067   10.05929285714453    0.33548970648222
H         4.23130799466432    7.42783555579192    2.43126928239426
H         4.14263317398197    9.86364392759005    1.14051189785820
H        -0.65703299491414    8.63478774206977    1.50171616799734
H        -0.28224105800337    6.94144626288501    1.12794498669654
H        -0.23235730764363    8.18036811357394   -0.15325824538782

