60
CSD_code = RELZAL | q = 0 | S = 0 | Stoichiometry = C21H29ClO5RuS3 | MND = 6
Ru        6.04401847562534    1.55795041562479    4.00510873047367
S         7.72829963193802    1.03225599522172    2.56630944572374
S         7.49916130901465    1.55292031768583    5.72354654051937
Cl        4.31787717760969    2.08263074747981    5.48204304942126
S         5.39648817439278   -0.58395724885140    4.20715686508974
O         4.70409081840481    1.65855315127596    2.39718241946986
O         8.17496584526254    0.26735778331929    5.89463777355949
O         6.07818269436927   -1.51429933778569    3.31331166175956
O         8.63607711146786    2.16326868612264    2.37195330221171
O         6.53868208043564    3.54603710283080    3.68691452622197
C         8.74072906640742    6.60668250304441    1.93399782624173
C         4.51043388424042    4.06548437582003    2.50477833110181
C         2.69229559073260    2.62297532955566    1.77058261402641
H         2.33492935683764    1.62345773566315    1.57154083758650
C         4.01336505753478    2.74162414679705    2.27279430320419
C         3.64861658490662    5.15616731597875    2.29650458761473
H         3.99193998942508    6.14891902405346    2.54635068161909
C         6.56143626533228    5.48847328971585    2.42940474986207
H         5.96676309513895    6.25259301643981    1.95777873438485
C         8.23483577993760    7.83315264971276    1.49288526640268
H         7.17356774481097    8.02260455903075    1.53227406748806
C        10.12328966422036    6.40167904692949    1.88024748539394
H        10.52472449510639    5.45580892329548    2.21391365960305
C         5.43316642777040   -1.30585779481091    5.87298886086848
H         6.46302199596133   -1.27435824758067    6.21492697803500
H         5.07693730581678   -2.32780910968771    5.82252680288083
H         4.79687671888959   -0.68643384221157    6.49545137518884
C         6.93300858171165    2.05771765578874    7.37794016397970
H         6.19224425590771    1.33935061959290    7.71061633232902
H         6.47066025626122    3.03262122032581    7.27801908510997
H         7.78371102179939    2.07385174457634    8.04896706995942
C         2.35957184122595    4.99367313047423    1.85854814425310
H         1.71210844225401    5.84887740156718    1.74042953844767
C         7.14520235847648    0.52165888659759    0.92534561026991
H         6.49958428328883    1.30850939319966    0.54909304694898
H         6.57966766173501   -0.39103003611588    1.07440796019983
H         7.99610501493308    0.37345662663616    0.27092703137008
C         9.08225205423115    8.81262940743609    1.01484720853106
H         8.67706053196504    9.75597259756538    0.67915009670452
C         1.88799017600301    3.71113180482681    1.57450798831499
H         0.87812783237962    3.57645887113755    1.21470815657757
C         8.80599307281867   -0.39034929188351    2.89986278748578
H         9.15448816626983   -0.31101605069462    3.92462671081855
H         9.63533026556204   -0.34381842886948    2.20411887868109
H         8.21604090040887   -1.28970316746209    2.78106227450726
C        10.96733840407817    7.38227865636290    1.39816992367305
H        12.03251521842621    7.20665501486822    1.36057117536294
C         5.87715276012929    4.30109438470997    2.93906071603446
C         3.62287043863798   -0.77721780090023    3.88677163854600
H         3.45859005137345   -0.43060759360174    2.87154104023584
H         3.09532006595364   -0.14053025835098    4.58884621439326
H         3.35425160768804   -1.82175032659234    3.99019190270035
C         7.90460874522300    5.54555434732961    2.45089437354882
H         8.42875099119434    4.68938764279053    2.85909654674695
C        10.44988354157359    8.59232924540654    0.96419828382273
H        11.10869615348411    9.36133766268555    0.58897802906008
C         8.80489400879984    2.80042422120705    5.53079884246262
H         9.19997220408101    2.69853182247119    4.52336675313202
H         9.57546741003560    2.61642533706410    6.27026323245121
H         8.34876934034675    3.77581472513137    5.65216176739476

