66
CSD_code = RELZEP | q = 0 | S = 0 | Stoichiometry = C25H31ClO5RuS3 | MND = 6
Ru        3.73622442082563   -0.53646841968832    8.77318585997054
S         5.47423775887638   -0.35903042584320    7.34689042647532
S         3.12458837817911   -2.60984241678728    8.14493636896440
Cl        2.32283375895433    0.23737052219248    7.09491806391382
S         5.12551349661808   -1.28511089399610   10.41599932169984
O         4.17213406259144    1.37229306732680    9.38786542527931
O         3.61001402695154   -3.65228038492600    9.04390508875298
O         6.16364526647611   -1.63145976367289    7.13314934872953
O         2.14833965074342   -0.64528674165519   10.10679411133987
C         5.64173115873064    5.66213200432449   11.75027092333829
H         4.60194072688914    5.57586696140480   12.02747190389670
C         4.21701379271869    3.30485734094729   10.62172715900143
H         3.58020908527095    4.17633240180894   10.59446201440189
C         2.47726808531055    1.55423816130012   11.09696671172017
C         6.26980773095607    4.60162109272662   11.12940008629212
O         5.98761960410332   -0.20222428399668   10.89158671817455
C         7.65502210911361    4.71371365532462   10.80119324022393
C         5.20962896139113    0.36379012425480    5.69926909092716
H         4.52886404128159   -0.28214846968393    5.15647781386293
H         6.16435001170204    0.43356517336392    5.19149475457877
H         4.74841616477734    1.33366438486814    5.84273876932289
C         6.73133789828838    0.81680160270102    7.92381948048146
H         6.94982502492647    0.56410014846528    8.95828366798006
H         6.30287505166248    1.81059642239285    7.86488791936973
H         7.61537944103455    0.71680568998105    7.30486432615924
C         2.00940820756485    2.40755583056286   12.12364974003649
H         2.53983431736620    3.32939685909132   12.30319201725218
C        10.37882965397809    5.02719587887228   10.17258386659981
H        11.42566961762200    5.12964388681947    9.92705575431018
C         6.32531425043433    6.84008685882254   12.06425765088129
H         5.79641894090669    7.64399054650025   12.55495694721442
C         0.67442361073310    0.03263513133732   11.72924887807596
H         0.17091332534841   -0.90758580565191   11.55976047833919
C         8.37550637427083    3.69430873624915   10.14346863032820
H         7.87663088547832    2.77781606954971    9.87250179457724
C         5.53308899442648    3.38104429644598   10.83628863101856
H         6.08831595983238    2.45242794827008   10.82968756960725
C         0.92786198229137    2.10473440225556   12.90146438238729
H         0.60050514918149    2.78353151744616   13.67361000978363
C         8.34321401062919    5.91471076691857   11.12543175198709
C         9.71067710419068    6.03923628939449   10.80041622896714
H        10.21865169594112    6.95801806346955   11.05731007145775
C         3.60397649065911    1.98853091112591   10.31567959167728
C         1.81092775001582    0.29521166982294   10.90992231000851
C         7.65187014524432    6.96669463628689   11.76048777412395
H         8.19064379213085    7.87143941306610   12.00261734599910
C         3.48888118973161   -3.14160400317038    6.44697961991130
H         4.56606375262885   -3.10098794740442    6.31932345851404
H         2.99243705208136   -2.43917073893965    5.78692108490122
H         3.12354281006989   -4.15208777499690    6.30860768323984
C         1.32184352939843   -2.78342035424165    8.08275606088057
H         0.95354647268899   -2.50637378312201    9.06540146993891
H         1.07183450861172   -3.81098972124086    7.84719694162447
H         0.95462117072379   -2.08412691803171    7.33979153346247
C         0.24318472417914    0.90275640162309   12.68603816380874
H        -0.62232824484432    0.66104232800439   13.28573347351892
C         9.70090066313391    3.84580029262881    9.84118344692316
H        10.23508464256355    3.05037718911105    9.34203473167909
C         4.29484771163512   -1.98819009546419   11.87164531242381
H         3.67616718769469   -1.21478731178942   12.31500764594303
H         5.04247843716430   -2.32784755298376   12.57865039763506
H         3.68323273093786   -2.80509410756089   11.50504885721334
C         6.23731761205157   -2.67945501431714   10.08174121627269
H         6.73722653499491   -2.48900373583757    9.13718476401961
H         5.63128897212932   -3.57270616357402   10.00247705305144
H         6.95242657563538   -2.73375184790673   10.89402706584772

