53
CSD_code = REMBAN | q = 1 | S = 0 | Stoichiometry = C23H20BrN4O3RuS(1+) | MND = 6
Ru       -1.25312958939422   10.03516561716410    2.62750077640215
Br        0.15850225974236    7.08042863114036    4.21109638626700
S        -2.24386089636424   12.05379487655164    2.95815379465985
O        -1.44645566075944   10.50017686735208    0.60976283238594
O        -1.05847877540397    9.70316298781830   -1.42794273840970
O        -2.49804612126521   12.40928582034430    4.34444373618643
N        -3.01787198120171    9.09480105264147    2.89505013075000
N        -1.18444676356068    9.84156946259502    4.50516341253732
N         0.57642773388513   10.82336555638821    2.94086431325689
N        -0.41189509530781    8.30269022398108    1.78047327364036
C        -3.86881887704190    8.65006124428826    1.97526151323589
H        -3.60209405782576    8.85078088800936    0.94350307817255
C        -5.03629545248851    7.98032426853641    2.29642183217725
H        -5.69448584462281    7.63797556944017    1.51498213579114
C        -5.33490889216478    7.76568161057033    3.63568363878445
H        -6.23711543186377    7.24910075842635    3.92212952445896
C        -4.45212029882636    8.22221183565174    4.59871433965946
H        -4.65224859556489    8.06087990945931    5.64486721588227
C        -3.29155922582823    8.88586192184107    4.20801892037894
C        -2.27711399045632    9.38988614877308    5.13694075163542
C        -2.35589499346461    9.44964878656549    6.52437282694625
H        -3.23033710181905    9.09758686992264    7.04519466689199
C        -1.29350116379488    9.99656592024364    7.22868772807117
H        -1.33557338369630   10.05568712153753    8.30424030260532
C        -0.18810385742554   10.49082199669906    6.55205450961781
H         0.62243585662657   10.94786775568957    7.09434769449634
C        -0.16195867965812   10.40569036939911    5.16399527978963
C         0.88470589422013   10.89132442365339    4.26129026983078
C         2.12080620450859   11.37611714687562    4.68205588279098
H         2.35115816500879   11.41925394169036    5.73354425215182
C         3.04849008995753   11.78902507303972    3.74176982742677
H         4.01020874003003   12.16580070089079    4.05161575220626
C         2.72099732999624   11.70501741723907    2.39470085477655
H         3.41569051443504   12.01199389919531    1.63037194066595
C         1.47455141743706   11.21775459589223    2.04312862013840
H         1.17174896879291   11.14630817454058    1.00433231388095
C        -1.03009894389612    9.63090294402468   -0.21856273343097
C        -0.43298788287962    8.36444326052531    0.43354861503081
C         0.05421720425699    7.35139112721512   -0.37697305448209
H        -0.00688691722757    7.49336789328017   -1.44529752652844
C         0.59150069121123    6.21465416325073    0.20316919246080
H         0.97905183133465    5.40681720410766   -0.39700818709577
C         0.61921193403747    6.14015316449046    1.58662852682061
H         1.02430804420474    5.28319745768081    2.10057316441198
C         0.11019296265352    7.20046349868437    2.31846177770369
C        -1.33449919535877   13.40791943948254    2.16858865717427
H        -0.39508005321075   13.54717839873677    2.69455690428720
H        -1.92519729622947   14.31517113040166    2.22665614560016
H        -1.16237772121018   13.11171243582468    1.13898095575643
C        -3.78918071182798   12.20718483015828    2.02500531724633
H        -4.52713007912301   11.54580247106134    2.46826997312583
H        -3.56860590512334   11.91284094797323    1.00388338891941
H        -4.13714640645835   13.23263018905241    2.07612729286177

