34
CSD_code = REMDES | q = 0 | S = 0 | Stoichiometry = C8H19Cl3NNbO2 | MND = 6
Nb       25.70453351431844    4.70096791526637    5.75268894521959
Cl       24.76952780753714    6.05091626224203    4.09752004388964
Cl       26.33388265318926    6.33071081293148    7.22930635719209
Cl       27.35047424975496    3.12784332003805    6.28793720522983
O        27.75005866023600    5.40955423686260    4.27181734551277
O        25.98697126610536    3.26523331039217    3.50957657764121
N        24.28528700695090    3.95306379681212    6.47445305344046
C        28.09154632084617    6.77985158673818    4.27978332103766
H        28.18037764854621    7.08036594253175    5.32392349649380
H        27.31554837501066    7.38084840812202    3.78998208202157
H        29.04952809703355    6.93787833454646    3.77038643548209
C        27.66106698723761    4.88474224122246    2.96366078821815
H        28.62637904016092    5.00869416565654    2.44987970512677
H        26.87748873047457    5.41249196100322    2.39826725972165
C        27.31571653426827    3.40175315273960    3.03769558893223
H        27.39403210503788    2.95728685658697    2.03453756477689
H        28.01210009928535    2.89309639077678    3.72101275796590
C        25.57951472440673    1.91486683338328    3.62037822601373
H        24.54025901819686    1.93964384290082    3.94813128293845
H        26.18771900019703    1.38230618772116    4.36120200551886
H        25.65753849384779    1.41628486537353    2.64686482304663
C        23.18399642481132    3.41198258496046    7.15414458201261
C        21.91699633426068    3.62253443592634    6.30749074745288
H        21.77578759817504    4.68681443684837    6.13133703635130
H        21.04635550618481    3.22094791389317    6.81828256046550
H        22.03257574900354    3.12679330422606    5.34572069535283
C        23.44194519609395    1.91303990750763    7.39151922102292
H        23.48106799838654    1.38956126921762    6.43885938998429
H        22.65507555694441    1.48424322781680    8.00536839562761
H        24.40084307092954    1.79263567692759    7.89214069770976
C        23.06008529353047    4.15131520476865    8.49923580577699
H        22.93274738192759    5.21610283733352    8.31209186734442
H        23.97459342774951    4.00730702652147    9.07190931839122
H        22.21188012935917    3.77702175020505    9.06529481708801

