48
CSD_code = REMFOE | q = 0 | S = 0 | Stoichiometry = C17H24NO5V | MND = 5
V         1.70159548030459    2.46755979051075   13.07136086210454
O         1.91336720524304    3.59734723753489   14.09194360327182
O         0.66563098633897    1.38170837817178   14.29260697277428
O        -0.12090705040620    2.95859240630198   12.41427851657171
O         2.20473017580583    3.14676860597529   11.64743951412673
O         2.95240855442571    1.39531606112389   13.33890840277123
N         1.70837364657041    0.59527023369170   10.99894102363163
C        -0.52838928272149    1.22201718017493   16.33463963584098
H        -1.58684959224697    1.13702735155675   16.56403705579588
H        -0.06242673607616    1.87564698805020   17.07092374075101
H        -0.04791776671746    0.24781259327973   16.39094480898281
C        -0.30437840050088    1.82507128126003   14.96749267170905
C        -1.19032080980474    2.79351358873332   14.49417826125034
H        -2.00484201870671    3.13012362090865   15.11443589190044
C        -1.05523648648928    3.28607960816549   13.19367394203214
C        -2.10630184134336    4.23711280949100   12.66463617566560
H        -3.10469817428337    3.91100897277467   12.94370949990250
H        -2.02721851751771    4.31568990163855   11.58267933214348
H        -1.93095197148773    5.22032897990283   13.09818353732711
C         1.93259859328896    2.93602442376958   10.33276144516271
H         2.51723127399115    3.61982633322461    9.69260492145289
H         0.85762449329453    3.13895339892279   10.17372757962495
C         2.23053739505457    1.46589596372611    9.95411332843670
H         1.79565638763562    1.23989351321968    8.97276670429490
H         3.31520560459528    1.34293653744265    9.87527801937051
C         3.66412108446115    0.62297410729071   12.47241527742300
H         4.35896461545313   -0.03775476119873   13.02032208945005
H         4.26136678280178    1.29553782934696   11.82563423440749
C         2.72386976919780   -0.24476387210300   11.60539068239731
H         3.32492712103500   -0.79882963385813   10.86283562186921
H         2.23366553678166   -0.95123466646924   12.27671490891428
C         0.44639723102467   -0.05266270643124   10.61062869071766
H        -0.19111052463270    0.77222315160482   10.26454919026656
C        -0.26584859149731   -0.69005276785518   11.80397052038507
H        -1.30963874899818   -0.86177447563062   11.54874052970383
H        -0.21610191359516   -0.01339326969571   12.65626652261586
H         0.16901785910394   -1.64573631362651   12.08485832505932
C         0.61151789374111   -1.02851801438283    9.45915246230683
C         0.16349042548130   -0.67312698489302    8.19070177074709
H        -0.33799957746504    0.27502756446497    8.04879568617894
C         0.33386625818084   -1.51882398134722    7.10872066757446
H        -0.02361591495061   -1.22223777676424    6.13350615137308
C         0.95971860164532   -2.74118340114270    7.27738309474884
H         1.09606917433253   -3.40370128293173    6.43572081035629
C         1.40308999184037   -3.11135485201909    8.53510798940263
H         1.88572221740367   -4.06722020441920    8.67787072625353
C         1.22972797257752   -2.26435561768372    9.61553905981674
H         1.57686158782875   -2.58146382980601   10.58690954113561

