48
CSD_code = REMFIY | q = 0 | S = 0 | Stoichiometry = C17H24NO5V | MND = 5
V         2.22571226921461    3.48438099380757    5.57051395039600
N         2.20722899234528    5.35856305306620    7.64329380483425
O         2.01677499601064    2.35386890843749    4.55001579757890
O         3.26788386154165    4.56789263529791    4.35078309104369
O         4.04417604758377    2.99404770451420    6.23647816098991
O         1.71545376768277    2.80749976530870    6.99199289045258
O         0.97742693078856    4.55853581928300    5.29622073850751
C         4.47253156251433    4.72233736117755    2.31428877091734
H         5.53228342090564    4.79532469380182    2.08526951868182
H         4.00238350451396    5.70189257223345    2.25597950840060
H         3.99942886652513    4.07227745697087    1.57881918673108
C         4.24138353091679    4.12333768579398    3.68201362990934
C         5.12524301373785    3.15623891116537    4.16231296846081
H         5.94358893500570    2.81899848182919    3.54745098808536
C         4.98334066702048    2.66626037627502    5.46292493477013
C         6.03353196627859    1.71823942191634    5.99926400059636
H         7.03350125135835    2.05781606877910    5.74184739714859
H         5.87627383558560    0.73880630666209    5.55045533789203
H         5.93647183327315    1.62616773297259    7.07872501973446
C         1.97819439625252    3.01756726749902    8.30865794585871
H         3.05155764194646    2.81227794269127    8.47540971084809
H         1.38750408578149    2.33476894074139    8.94432001095359
C         1.68043624939151    4.48826049162804    8.68595139799934
H         0.59561037971972    4.61248179132737    8.76099791775002
H         2.11219287197713    4.71368786039436    9.66886354901658
C         0.25980012504408    5.32955213471264    6.15901303139240
H        -0.34031227301119    4.65615262569600    6.80231515714195
H        -0.43263732596486    5.98980906366889    5.60747688622630
C         1.19428158644290    6.19789872794702    7.03166117888600
H         1.68740020012568    6.90519359360330    6.36336213471653
H         0.58852202044136    6.75081891829756    7.77120212973018
C         3.46760000463299    6.00634574272189    8.03653057699777
H         4.10385848008420    5.18133440125505    8.38460762447842
C         4.18412044308502    6.64443385043562    6.84604726117396
H         5.22748644725537    6.81410348997256    7.10436329362614
H         3.75145562414292    7.60134739749344    6.56588079118108
H         4.13562839055643    5.96927770513736    5.99243605017837
C         3.29876099541203    6.98208649348349    9.18760730024640
C         3.74923992564218    6.62959628761312   10.45599279823923
H         4.25439683376886    5.68341605245682   10.59818486848490
C         3.57643947677872    7.47558773592664   11.53735507882734
H         3.93622787935945    7.18146906208806   12.51248829862559
C         2.94480067804222    8.69493334827452   11.36827008538022
H         2.80596475306361    9.35744998521943   12.20953114826882
C         2.49867941485541    9.06210248431744   10.11063886287377
H         2.01151227066472   10.01564263028931    9.96752527085299
C         2.67536046865253    8.21524916943644    9.03061796738330
H         2.32679870305330    8.53046885638079    8.05914197753163

