89
CSD_code = REMGOI | q = 0 | S = 0 | Stoichiometry = C44H39N5Ni | MND = 4
C         7.65321840808990    9.64010536196745    5.52424190869295
C         6.62287100162380    9.68091491396023    4.56992487807853
H         5.63327542045997   10.07157530049706    4.71142154696397
C         7.10471000566085    9.07966202139184    3.40578670611994
C         8.47734505815335    8.70992996297747    3.65783815315742
C         9.53785222624656    8.27432598605792    2.83264941966618
C        10.87361292711747    8.15470662707069    3.31242416224122
C        12.11084094799256    7.88588964192760    2.66207673921140
H        12.23238096091162    7.63558477695724    1.62476167345209
C        13.12209519099927    8.03107040183246    3.59955011283735
H        14.17464126461003    7.90927210480983    3.42784479225454
C        12.50849247455300    8.38543514107552    4.81962249118989
C        12.82093374378132    8.83056045342426    6.19104977885181
C        13.91073869702329    9.09140868919629    7.05795057379696
H        14.94738465344844    8.91204858450967    6.84530650434457
C        13.38799780078784    9.62705961620274    8.22003378310626
H        13.93867890394816    9.94535091848365    9.08541426459526
C        11.97061718923944    9.70337597633580    8.06593958115621
C        10.93991598911424   10.25428009265541    8.85819117842929
C         9.59711737710818   10.32599303812889    8.40717447045686
C         8.41753384690868   10.92120913566583    8.93944569251954
H         8.33640196651485   11.39971779629336    9.89746402305998
C         7.41223917050681   10.78122276800670    7.99639401520743
H         6.40137758486227   11.13157357247500    8.08272414872676
C         7.97006682625175   10.09550018819960    6.89415454604686
N         8.72169190929336    9.04811904273973    4.96023310483722
N        11.17909400349431    8.42266896661937    4.61112231136311
N        11.69787769809950    9.18689926293234    6.83110977239684
N         9.25248877105968    9.82935746027421    7.18525874163679
Ni       10.20369163202557    9.07954052825055    5.91241518091126
C         9.32678020601050    8.00834252552476    1.39504223972082
C         9.15785479346874    9.06754892181036    0.50208735662073
C         8.95320626169651    8.78886301782336   -0.84006324232529
H         8.81240006932788    9.60848177239660   -1.53080200140072
C         8.92746939225267    7.48670040629713   -1.31518272164507
C         9.12955369868618    6.44892002305289   -0.41725255962335
H         9.12409932145785    5.42824594580560   -0.77463686305637
C         9.33594748337585    6.69057328878881    0.93124509659973
C         9.19845161914751   10.48719890506063    0.97977344319664
H         9.43810786592970   11.15929416135593    0.15898673588707
H         9.93872802270368   10.61232870012681    1.76755008035345
H         8.22696375186398   10.77418240623117    1.38161272555006
C         8.72230912416790    7.21047665078101   -2.77495689756405
H         9.67879971802716    7.24291417077539   -3.29749575334930
H         8.07257042437238    7.95879900361533   -3.22308162931134
H         8.29116574555846    6.22369027455691   -2.92945166532305
C         9.55056080857551    5.55213644802788    1.88426453440084
H         9.23090059668534    4.61217694675806    1.44009537007822
H         9.00416681930987    5.71092524872829    2.81256369292704
H        10.60708506083253    5.46876555948119    2.13882049353938
C        11.27859454216043   10.82527897150482   10.17662377152118
C        11.31445710686015    9.99158589186731   11.29608133233723
C        11.62908121223377   10.53796351246156   12.52907143513541
H        11.65645775702821    9.89774252859067   13.39978444691039
C        11.91056775894079   11.89054704325968   12.67176365251907
C        11.87184293205542   12.69949589899836   11.54673910828374
H        12.08981384702607   13.75412513102046   11.64174240298767
C        11.55794040941942   12.18604309638213   10.29691535726553
C        11.01012317732517    8.53165162994200   11.14820173196325
H        11.03703769761251    8.03093033558807   12.11271951320514
H        11.73557993280421    8.05781011909864   10.48751903621103
H        10.02407903362539    8.39172342256620   10.70645517954826
C        12.25389134504903   12.44913744913025   14.01976421790206
H        12.36978340107504   13.52908560353559   13.97672712344094
H        13.18551318925174   12.01516107020185   14.38203306366520
H        11.47383080435058   12.20980738607741   14.74108623590249
C        11.52101326516581   13.06789977806750    9.08562952801388
H        10.51966226625372   13.08217715307462    8.65616977077279
H        12.20046264384501   12.69251705814189    8.32104428786906
H        11.80644183929115   14.08572953009746    9.33920489044022
C         6.36260949998753    8.89722120037373    2.17473607080137
C         5.60981191238652    9.93935589896845    1.63166785712624
H         5.56634118722184   10.88609187193916    2.15186418834851
C         4.96243863233582    9.80135819976903    0.42503546915225
H         4.43073259497635   10.64931435201646    0.02404529625522
C         5.01440693931952    8.59522738420306   -0.29043720205946
C         5.71359062641747    7.52796878195328    0.29450387765323
H         5.72853458206633    6.56096298946585   -0.18094382316086
C         6.37414363641235    7.68208811214902    1.48966975751790
H         6.87999103206472    6.83554201624900    1.92601904101254
C         3.44519440454066    9.43619169929642   -1.97015315298519
H         2.77933926479587    9.73648424637297   -1.15883350571322
H         2.83616962930456    8.99580056272262   -2.75763877724871
H         3.93430846382194   10.33209355350196   -2.37142195686323
C         4.66851641332931    7.33020885756527   -2.35587761934132
H         5.72282584548134    7.05874072844160   -2.30128201642027
H         4.44030738156824    7.59203943447597   -3.38828255512363
H         4.06495642039988    6.45699252911733   -2.07891623147598
N         4.40240293886264    8.46328226389583   -1.50777349396770

