44
CSD_code = REMGAR | q = 0 | S = 0 | Stoichiometry = C19H18NO5V | MND = 6
V         2.64860251138174    1.05481600628093    2.28421378061733
O         3.98658631316208    1.17875238491319    1.55851656025955
O         3.10284516136491    1.18691276692634    4.05872007586857
O         1.45499040911088    1.40726953121828    1.07292197207454
O         2.29336096766047   -0.52725105996538    2.52158850242491
O         0.34754074794113    1.37433810959258    3.70467420489219
H         0.81004588448218    0.82820915787505    4.35564896338561
N         2.59513815989666    3.11586944319195    2.54649885050328
C         3.38140563492782    2.35042156771877    4.57163934128511
C         3.93464380495266    2.53065299125195    5.84585019506954
H         4.18836023093503    1.66187898514362    6.43516436372641
C         4.12947631944103    3.80739663474741    6.33103832102152
H         4.54558278922144    3.94379988930304    7.31830719961331
C         3.78621064255533    4.92062698010348    5.57149667746899
H         3.93494265889687    5.91119112556774    5.97371459693006
C         3.25874898844879    4.76833397218678    4.30454382273806
H         2.99076266347464    5.64443470236791    3.73169667662840
C         3.06908898093559    3.48748952845454    3.78510088979810
C         2.39938633251813    3.95611502167953    1.58223559219221
H         2.62809446084326    5.00801748896100    1.75479961811896
C         1.86695481119120    3.60278781347401    0.31130350906077
C         1.36397629386690    2.29219075030081    0.13811358161301
C         0.70219569469600    1.95016504408401   -1.07435696114970
H         0.31708640838892    0.94396411535231   -1.16240846980910
C         0.57262722189412    2.85556076138316   -2.07819338166321
H         0.06936144324138    2.58496208361312   -2.99567764282596
C         1.09826955701168    4.16590025402238   -1.95992453386781
C         1.75853268405611    4.54999487275995   -0.76339575597293
C         2.29685030196846    5.84984592261643   -0.70828112944001
H         2.83847467501130    6.17511054199701    0.16555794817672
C         2.16995286729720    6.72234606063763   -1.75879286755519
H         2.59576781555495    7.71251012693319   -1.68787592361570
C         1.49999456193827    6.34340845770868   -2.92543943313543
H         1.40562035966229    7.04199208700998   -3.74311368819494
C         0.97802427762053    5.08182461375828   -3.02090637237794
H         0.46741960376921    4.76564397917599   -3.91927596660950
C         2.81361591874454   -1.78862799339053    2.52107961508170
H         2.02877390341951   -2.53668959055477    2.33111831534465
H         3.26223183493959   -1.99246395133907    3.50699355636745
H         3.59904905334733   -1.87135955328466    1.75330548534282
C        -0.74981018721484    0.63904701521102    3.20663247028667
H        -1.44649706463994    0.38170335856508    4.01337081781683
H        -0.42534694811343   -0.27559998349882    2.69887335259358
H        -1.25993874980146    1.28030798594626    2.48852326991753

