68
CSD_code = REMMUU | q = 0 | S = 0 | Stoichiometry = C17H46P4Ru | MND = 6
Ru       10.89043780643597    8.12224980957597   17.34309742979422
P         9.36765237580375    9.61520226527775   16.34046222148634
P        10.55883774858964    6.55723689588859   15.64002422156310
P         9.54411224178156    6.88642309633401   18.80768924603558
P        11.38436323235557    9.66801619530117   19.02414699077333
C        12.72811847845930    7.12635099866232   17.80924491585523
H        13.07882046455272    7.22168259686919   18.84439400003171
H        12.76895475484739    6.05580735171590   17.57281560948748
C        13.61976426382957    7.93417290912903   16.85092363805083
C        12.06195911813361   11.33652624914917   18.60223231122834
H        13.08109519770387   11.24399207460572   18.23547006731611
H        12.05756133371279   11.97074760704849   19.48924148861276
H        11.45435380518565   11.79310162129801   17.82295390151170
C        10.16848893519007   10.73073822407803   15.11012364456563
H        10.94995221315050   11.30388143642259   15.60355702813668
H         9.43887875779161   11.40733596736085   14.66470679054616
H        10.63639752723324   10.12981646537002   14.33391925710182
C        12.56435988348782    8.87126285942085   16.24811114621263
H        12.52334559621248    8.75632764450824   15.15858283117771
H        12.83163742437048    9.91937313220429   16.42713653860032
C        10.90575008428570    6.99521607033673   13.87686974776833
H        10.41242577268584    7.93328433935017   13.62852378240618
H        10.53995868269099    6.20407685157797   13.22149748963997
H        11.97540913438739    7.11709374203675   13.72573245030721
C         7.71706859235838    7.13512734462776   19.02152166022029
H         7.51937345572051    8.15713273804836   19.34133121291251
H         7.31598977505073    6.44325866902185   19.76208403483806
H         7.21029923964515    6.97611456881856   18.07088078625494
C        14.30505925965021    7.06752860461443   15.78940075674187
H        14.94053299798855    6.31487381134298   16.25713826442961
H        14.92708242747348    7.68478679582111   15.14010281006467
H        13.57232310203628    6.56408747559820   15.16617422904435
C         7.93886906155573    9.10595514229196   15.27994128868108
H         8.28700468406644    8.47407467034970   14.46793235252598
H         7.45194837108464    9.98759816117258   14.86256882935185
H         7.21714140705414    8.55136712295530   15.87716017500835
C         9.94914210763121   10.25679363675096   20.06068122029151
H         9.76108430406785   11.31430384061884   19.88831305748048
H        10.16229094915040   10.11605331752316   21.11928865593853
H         9.05556177556930    9.69538424173004   19.80046511974282
C        11.35220667459271    4.88448438094060   15.59508155122917
H        12.43149667417999    4.97272216066694   15.52179109477821
H        10.97861168020570    4.33956009237180   14.72717828511158
H        11.11524670677929    4.33220849415426   16.50041007031639
C         8.81019570558526    5.95704721299074   15.38829290728713
H         8.16778215974917    6.36787194944518   16.16264536201896
H         8.77156360649546    4.86982808740244   15.43415173228212
H         8.43372163449366    6.27070153917396   14.41699406698985
C        14.73792599926534    8.69833213343260   17.56738087959057
H        14.32860981966432    9.41455494551920   18.27332454945820
H        15.34286314643252    9.24937905795032   16.84624708920986
H        15.39045724064682    8.01118497137564   18.10711060126311
C         8.42862184991188   10.92709641115444   17.24730440443044
H         7.73363462865864   10.46547631878875   17.94655410852765
H         7.86792735178984   11.53950122918749   16.54080000298714
H         9.11750925699526   11.56084078596842   17.79838607459027
C        12.53070007213066    9.33349832156765   20.43955593389640
H        12.20037492544057    8.45772520614926   20.99135471406617
H        12.53703304382694   10.20058422945322   21.10123995035213
H        13.53942132103146    9.15130106402726   20.08268211310601
C         9.99746289213225    6.84972562179247   20.59547286380650
H        11.02637663407022    6.49750938737990   20.66117663316837
H         9.34618554298258    6.16371307799535   21.13853117595131
H         9.92632575208985    7.83798235538370   21.03854578669131
C         9.52341590726188    5.04974808337971   18.63869612623017
H         9.11245088577672    4.74952109174169   17.68011414731370
H         8.93490625139458    4.60067357391824   19.43970878629667
H        10.55466629345295    4.70627167189547   18.71312778731539

