44
CSD_code = REMPUU | q = 0 | S = 0 | Stoichiometry = C17H23Cl2NRu | MND = 9
Ru        1.35498669323309   10.13380128885468   10.66860286250136
Cl       -0.69210169645494    9.95763177277317    9.53002700277818
Cl        0.18055546781246   10.32738075148351   12.69547262103930
N         1.27083207927994    8.17064042721885   10.92880394946171
C         1.63422145409772    7.63484987644867   12.10079394484947
H         1.87266563469676    8.33436259622838   12.89407037694526
C         1.67191099185060    6.27095708418163   12.31797175207844
H         1.96488919307244    5.89431382303541   13.28508878005496
C         1.32275867583936    5.40931080330161   11.28863173680664
H         1.33810469092574    4.33997050471059   11.42976473087008
C         0.94527901758381    5.96557466339184   10.07568408064157
H         0.65576733767845    5.34414586981607    9.24342001192708
C         0.93304172628583    7.34008926037825    9.93551388992522
H         0.61520735465806    7.80580687408847    9.01032154670584
C         1.81324186554990   12.14461194205297    9.73306226025886
C         2.25996186891024   11.12325229696045    8.82310513337778
C         3.13987329816490   10.11624911945831    9.27400856301057
C         3.66436489091901   10.16468112401583   10.61342037978387
C         3.20493160731861   11.14973596779260   11.51002537044912
C         2.30580557702580   12.17770844014750   11.05297268951646
C         0.82437268720613   13.16798356357174    9.23930709803670
H         1.33028319524331   13.95886248850556    8.68188795935058
H         0.09266215357331   12.69098971242792    8.59078207551029
H         0.27552038616739   13.61274150766604   10.06384463397041
C         1.79281422616762   11.17346871221311    7.39623476960946
H         1.74238673093300   12.20324458586152    7.05078741573772
H         2.45898866826158   10.62889493807471    6.73443714349658
H         0.79186810845998   10.74094135671218    7.32617916267135
C         3.59353920744015    9.02237742168943    8.33977800231910
H         4.47552318868330    9.33864607085574    7.77880734061638
H         3.84010609180448    8.11644592615679    8.88814268757007
H         2.80813425840337    8.76941299104880    7.63278095264467
C         4.76931504248847    9.21537517533896   11.00622363252385
H         5.40718491284154    9.00873799111280   10.15019004739499
H         5.39357170822648    9.65220391672090   11.78102926678511
H         4.37688649760554    8.26696640122440   11.37742824746835
C         3.64650510538886   11.16994321361240   12.94787465575498
H         4.40331071726065   11.93824891230330   13.11473383599206
H         2.78731456128088   11.37951979794831   13.58297895448676
H         4.05154464894361   10.21060760999708   13.25506553496852
C         1.94587024215778   13.28943973672864   11.99996359671825
H         2.79244104390589   13.53719492665588   12.63554319989878
H         1.65272605215298   14.18823425680705   11.46526263373565
H         1.11853283695963   12.97664430044220   12.64067546976607

