68
CSD_code = REMSAE | q = 1 | S = 0 | Stoichiometry = C27H35ClN3ORu(1+) | MND = 9
Ru        7.56841113800175    8.14094932934630   11.70416102666741
Cl        6.89025917125851    7.12873265977233   13.70597796331828
O         8.25573505158911    4.08950127514053   11.31255958963635
N         6.50567049149165    5.60160821016033   10.87425474011945
N         4.87969904774530    6.98087381649202   10.59751342496323
N         8.58534910090398    6.30542552431871   11.46400435624793
C         6.16778219114676    6.93220606030011   10.94258752357369
C         4.40813958918745    5.71799378088444   10.31570347615892
H         3.39405065777766    5.55285955264920   10.01339104418512
C         5.42186752746801    4.84261515963355   10.48845990315035
H         5.47267644945637    3.77945398633237   10.38130355224148
C         7.79020642550917    5.31740322908727   11.22279331021310
C         9.60016180913432    4.21431161231444   11.79688817929766
H        10.25923262615411    3.68018315309349   11.11056425572152
H         9.64699626591724    3.75077178594417   12.78519865851731
C         9.88851429652519    5.74343410786423   11.84378269464012
C        10.27396114746522    6.20494894672725   13.24615049177132
H        10.48608885244540    7.27042222337462   13.24608923915725
H        11.16082725721498    5.67373830149370   13.57951222179840
H         9.45973515651289    6.01561514817853   13.94255642521753
C        10.94878585268114    6.13175781786814   10.81351615576416
H        10.64128778144928    5.82803353395269    9.81495695836009
H        11.88910567899175    5.64523642570143   11.05728971391393
H        11.10677087076720    7.20569932381972   10.81890718432017
C         4.10374452299542    8.17454272926266   10.54453760889292
C         3.36971474802600    8.55076203781070   11.66926741282466
C         3.34039956167584    7.67880895776166   12.88342672741507
H         2.78000458045954    6.76700033778534   12.67722664458606
H         2.85955202147463    8.19084716314035   13.71137205393588
H         4.34624729723319    7.38600595846888   13.18412968804905
C         2.65166944913291    9.73634835183547   11.60962981198486
H         2.07928851593489   10.04449398263589   12.47170335546140
C         2.64249458042284   10.52568594183776   10.46676607946806
C         1.87844735956313   11.81088573973016   10.43180875313595
H         1.05713826530803   11.79471145563955   11.14286534561940
H         1.48273371893982   11.99967915903543    9.43728611353233
H         2.53387913922860   12.64232653514309   10.69304966153766
C         3.36233673405503   10.10419287436621    9.35495158737163
H         3.34126191932788   10.69913487771504    8.45391960558226
C         4.09615091313310    8.92782769247246    9.37119455811896
C         4.82365390600911    8.45194869913075    8.14898436348768
H         4.22946397132115    7.69287303676633    7.63958699317257
H         5.78548310902149    8.00631721047935    8.40208018194365
H         4.98042836289797    9.27097881335817    7.45195254195117
C         8.64343866854393    9.58664274750609   10.27435889331396
C         9.39546641132664    9.52728414587176   11.47646754956184
H        10.46372999331514    9.34605667039347   11.42011024862166
C         8.81146766537593    9.81115210627610   12.71411177908476
H         9.42417549030982    9.83019314549707   13.60886883439116
C         7.44501568384172   10.20123478984709   12.80863139149875
C         6.68645554815332   10.25112392332803   11.62448547218711
H         5.66624664713365   10.61348559262702   11.64353512990817
C         7.27592248677787    9.92840686363655   10.37539762134046
H         6.69560982323664   10.07104781388093    9.47113285572144
C         6.91686696938287   10.69540043434963   14.13157510549717
H         7.45420440467376   10.17247043691335   14.93029857206683
C         5.42366430470013   10.45124224868282   14.33012577851005
H         4.82344844618216   11.04118962013560   13.64148437756609
H         5.14591862036736   10.73021061940338   15.34279594958351
H         5.19800435286657    9.39781586512422   14.19082533842751
C         7.24212587859920   12.19333034117476   14.22343685032459
H         8.31071137802184   12.37116525441130   14.12400794519777
H         6.91783770596670   12.57751412484194   15.18631937915320
H         6.72483199119123   12.74317027112078   13.43983505026480
C         9.30877234485386    9.43779910800975    8.93934880957420
H         8.59316014990635    9.14902331267541    8.17336053550614
H        10.10644113625380    8.69945431873897    8.97141675600473
H         9.74867678606749   10.39293972672545    8.64800859966620

