79
CSD_code = REMTUZ | q = 0 | S = 0 | Stoichiometry = C38H30F6P2PtSe2 | MND = 4
Pt        5.21898615154319   14.06299011919786    2.83600975139070
Se        5.70859909734094   16.49961870485758    3.13618249800884
C         3.88918130791635   16.96266700234367    3.63050366934600
F         3.54258441071606   18.14666192148831    3.11020166171373
F         3.00831059191339   16.06480622320016    3.13621667257706
F         3.66245321760057   17.03862140329037    4.93925666265567
Se        4.62119468600613   13.95874373676917    5.27105371314982
C         6.50134606632039   13.69945802685013    5.64411888725237
F         7.18468985557864   14.82958635505535    5.82007878628390
F         7.12815657249466   13.04241997774658    4.63695107227597
F         6.68521170413143   12.95822525227978    6.74180896636134
P         4.41845803984621   11.90070155635264    2.72639422327271
C         4.04210035724039   11.23233013164013    1.07625430099071
C         3.33509975118165   12.10302748614746    0.25073796567282
H         3.12260017141447   13.10386852241588    0.60806294476731
C         2.91102292382215   11.69316540168201   -0.99797080655337
H         2.36908181345284   12.37534562414614   -1.63642715647255
C         3.18705545299881   10.40310269982778   -1.42616872274610
H         2.86036797755732   10.07753251415170   -2.40260735654914
C         3.87418683370383    9.52947299618708   -0.59992018677445
H         4.07690767200224    8.52149943618723   -0.93106506419768
C         4.29906779852695    9.93576797673881    0.65375200456934
H         4.82754930481209    9.24644013251907    1.29612850487064
C         2.76662967243459   11.65386414358283    3.44469334833285
C         2.29457751833764   10.36164943660959    3.65475326030537
H         2.93145820652927    9.51453956450463    3.43884015837137
C         1.01857866713089   10.17048698389928    4.14894799303682
H         0.65532026935074    9.16866700361574    4.32421826564247
C         0.20616711437854   11.26055125503555    4.42064511334730
H        -0.78803744740385   11.10545193443027    4.81189495181912
C         0.66738731914294   12.54585344078805    4.19100861371402
H         0.03527452625657   13.39521728966718    4.39891208100833
C         1.94509958250958   12.74387196440088    3.69942045684956
H         2.31417929978605   13.74696384593290    3.52068474457123
C         5.49088849535035   10.71660566863315    3.56918946444919
C         5.27655035866090   10.40240107000457    4.90884033613435
H         4.40767266564318   10.79329883168494    5.42045508468617
C         6.18454342387295    9.60665394529509    5.58235749283829
H         6.02024579267375    9.37163177069215    6.62301278018424
C         7.30931036269128    9.12769131406448    4.93043587813588
H         8.01885282115396    8.51144008287355    5.46198016964101
C         7.53338192554244    9.45264407730278    3.60199254044550
H         8.41721339010020    9.09269003997226    3.09611616222899
C         6.63442016478237   10.25312276262806    2.92343413685022
H         6.81689763900165   10.53200924294796    1.89548236511781
P         6.32436658548141   14.14440846412041    0.79746418530070
C         5.33791848591313   14.82466446775212   -0.55918662068862
C         5.73896581970842   14.77545799294385   -1.89152741159457
H         6.66311191335195   14.28304128960300   -2.16212588562368
C         4.94677733138763   15.35403692098754   -2.86660238619945
H         5.25778005962732   15.31668936473588   -3.90047765911481
C         3.76087036004394   15.98400721150432   -2.52217636456271
H         3.14986635271341   16.43513560591779   -3.28976650210578
C         3.36019586340202   16.03719581559062   -1.19703438096544
H         2.43896639000599   16.53060305976202   -0.92659029687684
C         4.14708397222623   15.45778988317166   -0.21948752535596
H         3.84785600227450   15.49013171721877    0.82289909577528
C         7.12380687368211   12.65380112513302    0.11550090669967
C         8.35428530154772   12.24837358427625    0.62891468203795
H         8.83524070614768   12.83464026171835    1.39785996108506
C         8.96084969188066   11.09794310434854    0.15899713995850
H         9.91632969242844   10.79479725918541    0.56052777671486
C         8.34446467813469   10.33556885507521   -0.82040511461249
H         8.81824835419800    9.43668765682463   -1.18550841496225
C         7.11890201750715   10.73101013748209   -1.33014920966733
H         6.63218029747485   10.14189593467012   -2.09321469642851
C         6.50801720074059   11.88169655102299   -0.86540023034896
H         5.55281616750148   12.18248590116308   -1.26878444812404
C         7.75030039153277   15.26639884773808    0.95984820233234
C         8.14426159395314   16.15285568008598   -0.03349956284592
H         7.59026273151041   16.21873769714498   -0.95833726439575
C         9.23922139754260   16.97363264437651    0.17530526229319
H         9.53777574975208   17.66929275298716   -0.59507475989228
C         9.94170912047215   16.91698929697913    1.36698312300631
H        10.78909553782908   17.56711414607927    1.52482491350327
C         9.54702030906422   16.03972621045380    2.36420478361001
H        10.08097891411267   16.00338755671243    3.30155057624603
C         8.45331885424495   15.21963227505414    2.16343725510301
H         8.12763175642776   14.54271185843960    2.94486248140069

