84
CSD_code = REMVIQ | q = 0 | S = 0 | Stoichiometry = C41H37Cl3P2Ru | MND = 6
C         1.15397010400692    0.99904042145027   15.52941965866588
C        -0.00680415216923    0.60729579915199   16.19137837875871
H        -0.21845276748053   -0.44187167158012   16.34392434373277
C        -0.88439913624884    1.56321786143335   16.66612184628758
H        -1.78019925492203    1.25601109469381   17.18657115905134
C        -0.61760228177780    2.91010291903248   16.47715526144751
H        -1.30496095246442    3.65315357005572   16.85458941087951
C         0.52688373710003    3.30044845149086   15.80376222121279
H         0.73540460101445    4.34897470044350   15.65154192309727
C         1.41028808002990    2.34958922831733   15.32471494160044
H         2.30448874602917    2.65671749566589   14.80167257076562
C         2.16149699296564   -1.67659183649262   15.94040345594359
C         2.32281506622866   -2.96198583545081   15.42892522448955
H         2.41706151064979   -3.10358340137835   14.36054260836609
C         2.37765874213233   -4.04374123787808   16.28816458369070
H         2.49314417658039   -5.04076517588048   15.88790002623213
C         2.28541282486345   -3.85098751114596   17.65745916479785
H         2.32222980865231   -4.69832913576612   18.32684961743019
C         2.15701729372625   -2.56989718691787   18.16998919264448
H         2.10267241915671   -2.41776092087593   19.23832093154739
C         2.10304858177656   -1.48189490370832   17.31763097694428
H         2.03068849954046   -0.47696300854849   17.71146656257250
C         1.28732228045209   -0.73093690539561   13.36898495183536
C         0.20167397269526   -1.59098411555812   13.51221078156726
H        -0.02203264112005   -2.02924558043853   14.47478792872809
C        -0.58378121536551   -1.89797610554423   12.41747558745655
H        -1.42102102852667   -2.57143024783829   12.53212191272312
C        -0.29921971013706   -1.34749692025503   11.17805121475222
H        -0.91347678756993   -1.59485894390923   10.32458572953897
C         0.77103188060661   -0.48135425128497   11.03645630608107
H         0.99506467165127   -0.04869206990992   10.07271912750896
C         1.56039271515428   -0.16713697565481   12.12809362665138
H         2.39644793865151    0.50759821548259   12.01100594338051
C         7.26734766172816    1.38490433980525   12.54780138982850
C         6.76842150427482    0.66600065611081   11.46444733622473
H         6.08558175799447   -0.15700767473353   11.62976149004909
C         7.13202771537509    1.01540036373301   10.17661857173353
H         6.73498020363160    0.45790187194414    9.34109392569299
C         7.99295790897784    2.07842177894179    9.95973890793173
H         8.27010699986209    2.35494890169074    8.95289687903868
C         8.49385966459702    2.79179700527922   11.03614050422665
H         9.16378041636560    3.62322589954850   10.87099062385612
C         8.13527320182846    2.45076399903850   12.32778159568370
H         8.52511459067577    3.01715596214115   13.16154753069568
C         7.98089628647050   -0.40422175067467   14.67205830076014
C         8.08522358152584   -0.75194485657152   16.01836439825679
H         7.50845826164788   -0.19845409910423   16.74970263767240
C         8.91912136428244   -1.78133042937511   16.40735184069080
H         9.00601889712264   -2.04009127155055   17.45284890545347
C         9.64254023037433   -2.48345482248517   15.45411261834226
H        10.29318794974111   -3.29106024547385   15.75725304902441
C         9.53120942159374   -2.14930416501332   14.11507619466849
H        10.09197744720681   -2.69842237607632   13.37293108833089
C         8.70306668672784   -1.11192080243662   13.72017370491833
H         8.61688382601677   -0.85299629161966   12.67476028082832
C         7.32709278907130    2.33950399080609   15.21379877178250
C         8.53672787384372    2.37678429155713   15.90047982957130
H         9.19788965873277    1.52184025107517   15.88875966971752
C         8.89954304169603    3.51669353879436   16.59579426966898
H         9.83887882889903    3.53862548028790   17.12955641365980
C         8.06705370684616    4.62329580770761   16.60849782785092
H         8.35324443445961    5.50729495058318   17.15941996242193
C         6.87122014652919    4.59639196020597   15.91005838535591
H         6.22185060136280    5.45898376945223   15.91233739005580
C         6.50237782734861    3.46265835707117   15.21153569029563
H         5.56997148773888    3.44577341403841   14.66485199889125
C         5.02126576783213   -1.09969973373901   15.78860591664905
C         5.32094467211662   -2.02409678174432   16.75432284632041
H         5.15419006119032   -1.68817548549050   17.77653454891009
C         5.77994374615677   -3.27983446616749   16.51645940669209
C         6.03879263217264   -3.76116204465880   15.13424472130955
H         5.67414483537419   -3.05333727899893   14.39228165774743
H         5.56578702214128   -4.72891159194324   14.97308887977728
H         7.11205822420787   -3.89285839632291   14.98671651257249
C         6.06188422491398   -4.23038144495542   17.62562799463987
H         5.91927853194985   -3.77040698273995   18.59979249644459
H         7.08448322471995   -4.59979251696279   17.54938639331265
H         5.40038633859983   -5.09357510164744   17.54714801508086
P         2.27235142123939   -0.25021677533325   14.82364340734171
P         6.79332374156190    0.90194537595696   14.23685492236964
Cl        4.47352482107956   -1.43281802945710   12.84230186518260
Cl        4.34252466766141    1.64560787210180   16.53476238065150
Cl        4.12360141438277    1.92216142628727   13.15687472404151
Ru        4.58366396220205    0.18222833504518   14.63601415769739

