60
CSD_code = REMWIR | q = 0 | S = 0 | Stoichiometry = C20H29ClO5RuS4 | MND = 6
Ru        3.31714396571408    2.57168809883418    2.10523178265936
S         9.44181996407715   -1.38281565588958    1.32146066918698
S         2.77271040612293    2.15072181207565   -0.04369481957078
S         2.11441368972909    0.76195245231745    2.79509140885334
S         1.64327018961801    4.02439759216754    2.49582763126172
Cl        4.53967585235646    4.41475033432645    1.38111627349482
O         3.84261576405578    2.92080056589221    4.08016125049291
O         4.95090792830923    1.34981606898519    1.84843248758345
O         1.32712754779969    2.13678445059152   -0.26764497078402
O         2.77913683605020   -0.46988808891611    2.37010360658174
O         0.51894039063436    3.42512151173325    3.20775668656797
C         4.73320131400113    2.24768214955942    4.71325950350556
C         4.80290341540471    2.48493203314187    6.11652370770463
H         4.13003460022039    3.23361685171782    6.50791884312989
C         5.64946729478692    1.79701681014650    6.93518653562726
H         5.66260144400340    2.00289903105935    7.99572194010794
C         6.48755985525694    0.81151546248038    6.40337611692634
H         7.13346378318907    0.24095710671536    7.05258468604430
C         6.48195536986460    0.58113596432987    5.05505694692541
H         7.11786254093842   -0.19629752970902    4.66196515473831
C         5.64881757468123    1.29018164032833    4.16092711542910
C         5.75110520000632    1.00054584894906    2.74829733935577
C         6.89950742549549    0.21388217998192    2.27937638122435
H         7.84471906867264    0.32101749996296    2.78873412789075
C         6.78834995812420   -0.58345758322386    1.20320324822021
H         5.81908818556770   -0.67284287792400    0.73143494930157
C         7.83516052197612   -1.37055098033277    0.64160657509125
C         7.75653746470702   -2.20020294793430   -0.45969773147714
C         6.52039478453180   -2.40351896743962   -1.27303185380046
H         5.66902763223879   -2.63571561268742   -0.63579250740873
H         6.66564836254344   -3.22054816879042   -1.97493870839245
H         6.28324263052534   -1.50213219540566   -1.83859221119718
C         8.98773492012669   -2.82815339463147   -0.74306228721354
H         9.12905325449419   -3.51009600393232   -1.56298430040580
C         9.97663598182980   -2.48748807561856    0.12596002209159
H        10.99494758586392   -2.82230240174842    0.13562105997349
C         3.48085396364118    3.17338686563217   -1.37197284504684
H         3.19247354588358    2.75181956361480   -2.32772647244658
H         4.55539896604360    3.18577367521348   -1.23332926823553
H         3.09203376731580    4.17905415088043   -1.26077209944975
C         3.39951025532858    0.54813020527191   -0.62669164319855
H         3.19513101374221   -0.18089700307529    0.15419762941906
H         4.46749709207286    0.65384486781719   -0.77426746037201
H         2.88592453847029    0.28785275387007   -1.54498868513766
C         1.81383257826335    0.62087701943130    4.58374207251107
H         1.18367643011000   -0.24112450919475    4.76824701424068
H         1.33137331938613    1.54434288729811    4.88411934766469
H         2.76995301397544    0.50542109923934    5.08359408208450
C         0.38754269631384    0.59363137523626    2.26199547491831
H         0.34940054498539    0.76972527835884    1.19159764007204
H        -0.19161141027271    1.34704203081216    2.78023080032259
H         0.06531973083732   -0.41326468526261    2.49949714230798
C         0.96225160957336    4.96405728171609    1.09792046125123
H         0.57047422521226    4.24542987254583    0.38494389201900
H         1.78409374214923    5.52760099476073    0.67076278285732
H         0.17445676701480    5.61308571020293    1.46104645796369
C         2.19752523164927    5.42862919499534    3.49829503862354
H         1.34393008311745    6.05183009183675    3.73684445626339
H         2.95335459581304    5.95672759516609    2.92773490730035
H         2.63942099532231    5.00841870245112    4.39628261458606

