75
CSD_code = REMXEO | q = 0 | S = 0 | Stoichiometry = C39H29F2IrN2O2 | MND = 6
C        -1.45024077289359    6.38843582191042   12.58882039169090
C        -2.64157549663734    7.09695588898063   12.48779236051363
H        -3.27693866382902    7.01177596782561   11.61882604930819
C        -3.03652596843559    7.93443132113728   13.51364651771907
C        -2.28693797310056    8.10770562713738   14.66454832711497
H        -2.63666369316385    8.76836598862396   15.44176763249857
C        -1.09855416247371    7.41620578483753   14.77958059243017
H        -0.50659468655725    7.54053190254457   15.67369983583359
C        -0.67699768300668    6.56644895287401   13.75807404622769
C         0.56181579999936    5.80172357408117   13.78895603231726
C         1.50735072594187    5.84456749249625   14.80796181315161
H         1.34597002493110    6.48442718330473   15.66036082180220
C         2.67585929162999    5.09644957060048   14.72262542032739
C         2.84992003070279    4.30709172495523   13.58257555838694
H         3.72884628681670    3.69312882298697   13.46661202579619
C         1.87241290075457    4.30370828137717   12.61082940263564
H         1.98688778571228    3.70592356676297   11.71694271860222
C         3.69080663118461    5.14681518157629   15.78126694349217
C         3.31666352246854    5.16710616185092   17.12325067231036
H         2.26994639449880    5.11929139669756   17.38572661801675
C         4.27588939715888    5.21640901273513   18.11715778383462
H         3.97410194378308    5.22370427667411   19.15414844243846
C         5.62034585765408    5.25659550248221   17.78671765754772
H         6.36843689929017    5.30037241926277   18.56402143441581
C         6.00200502917020    5.24122058242909   16.45537030918931
H         7.04899627226420    5.27751406728629   16.19290361091259
C         5.04589856784785    5.18141465312617   15.45898739243492
H         5.34732639796828    5.18806695764566   14.42188254246332
C        -2.09202305691181    1.20110728089694   13.39681404536075
H        -2.62015622066826    1.79696756247417   14.13722545489484
H        -1.34292460317424    0.58930411255944   13.89528938643753
H        -2.79521620602185    0.53858968602272   12.89610389125375
C        -1.42412146637586    2.11756659935683   12.38562182592798
C        -0.71971080237309    1.48730497914565   11.35548060707812
H        -0.71973015333453    0.40723931694256   11.35545525190406
F        -4.20331117560549    8.61013054758745   13.39234204126986
Ir       -0.71968403184217    4.98339291523695   11.35555041115793
N         0.75649961029434    5.02365462451769   12.69748791521070
O        -1.57647556555309    3.35077849984552   12.56095446257208
C         0.01097816011375    6.38838710782284   10.12228078264891
C         1.20228752318861    7.09696030687769   10.22336764880717
H         1.83762762281938    7.01177049211992   11.09235652350564
C         1.59725068328805    7.93448444560524    9.19755371628012
C         0.84770662310421    8.10778941683678    8.04662180834380
H         1.19745343916185    8.76845817214254    7.26941183057729
C        -0.34066713944385    7.41626706259136    7.93154148730518
H        -0.93260536190376    7.54063135626730    7.03740571116772
C        -0.76223209397340    6.56646683066120    8.95301130478546
C        -2.00104421034238    5.80173708970712    8.92205676140668
C        -2.94652478918199    5.84457871510052    7.90299717646493
H        -2.78508736835787    6.48439206843507    7.05056888927207
C        -4.11502430003405    5.09643340739601    7.98827033534073
C        -4.28913307013200    4.30707258469570    9.12831215543521
H        -5.16807159562242    3.69312497519119    9.24424492582740
C        -3.31166302902801    4.30366478489215   10.10009494904697
H        -3.42622467785883    3.70599218326884   10.99404357492082
C        -5.12989048341146    5.14675608167046    6.92954939629421
C        -4.75563802133048    5.16702116469084    5.58759505370092
H        -3.70889954343477    5.11920809305061    5.32520360737375
C        -5.71478536496607    5.21629182801672    4.59360993068915
H        -5.41291266851384    5.22354417273857    3.55664269312947
C        -7.05926727179303    5.25647255918505    4.92394393056416
H        -7.80729751011957    5.30022069780095    4.14657812614183
C        -7.44103259656322    5.24112720083614    6.25526098976259
H        -8.48804452212239    5.27741591927000    6.51764735120187
C        -6.48500506178641    5.18135132735839    7.25172075803120
H        -6.78651415488266    5.18803152614200    8.28880263000269
C         0.65258285161272    1.20114597504472    9.31414125247586
H         1.18072331144843    1.79700518584462    8.57373605144626
H        -0.09653773521718    0.58937326939465    8.81566053999211
H         1.35576135318060    0.53858669311863    9.81481879860926
C        -0.01527753505678    2.11759908516088   10.32537124337334
F         2.76404284870151    8.61017848128462    9.31888804102717
N        -2.19575804621336    5.02362601807687   10.01349915985563
O         0.13712674659543    3.35080991293148   10.15011261869872

