75
CSD_code = REMZAL | q = 0 | S = 0 | Stoichiometry = C30H24Cl2N9NiO6P3 | MND = 6
Ni        5.00060766987945    5.10989323660062    3.37951298364575
Cl        3.87447647912858    6.57240364099199    2.41702201985842
Cl        6.64955355187145    6.42586827537885    3.58056760258985
P         7.36600885543510    2.95857126214384    3.63620734353962
P         5.44169276200961    3.37116438346951    5.56605171986366
P         7.00109202131497    1.12785924742757    5.60362773193212
O         7.25045595986338    2.65259686035983    2.08632267982011
O         8.57982379751451    4.03236047172153    3.57573236825207
O         3.83051690388702    3.23996764777436    5.45497128956880
O         5.57205477888221    4.53153715955418    6.64423365127825
O         6.30595729578899   -0.29787336660351    5.22367431988826
O         8.12607258523376    0.63659505670162    6.62146166933936
N         6.01109199866678    3.67929468400546    4.11077691215620
N         5.95449248075569    2.08414347155837    6.35036135265923
N         7.86482632447612    1.62012436205771    4.34503333410366
N         5.97416908457769    4.38521762021032    1.19664533090142
N         8.23081006497785    4.05431154547542    5.80858579249094
N         3.42966927901462    3.86919769588581    3.26424065730853
N         4.25496054262632    6.06079617129479    5.50771386498418
N         5.29477540098019    0.88259384080025    3.56116546868909
N         6.45266275469778   -0.16552104343811    7.94254566687581
C         7.09525471826610    3.67774923198867    1.17931515363010
C         8.11434265518523    3.86522314270119    0.25124852420893
H         9.00245758140982    3.25877684869885    0.32280682595849
C         7.94954914352182    4.83209388292025   -0.72155381628860
H         8.72513192562643    5.01255750750089   -1.45097044817980
C         6.76864693783241    5.55958921436412   -0.73386950840982
H         6.58888543280985    6.32183482826103   -1.47427774857408
C         5.81906469445486    5.30226085911638    0.23635470603036
H         4.89712617587509    5.86720843910076    0.27501983147921
C         8.84335834325289    4.59935954420872    4.77366064035375
C         9.71003450078610    5.68320338308712    4.86863510467841
H        10.14702835413554    6.09605857628278    3.97593338638397
C         9.93910015610282    6.20250050693925    6.12632058319845
H        10.59049888412058    7.05438698719938    6.25111817571725
C         9.32109197026549    5.61838621679209    7.22771361740495
H         9.48988617599884    5.99701843476068    8.22345440323676
C         8.47625780717866    4.54745574913810    7.01744361776736
H         7.95653278275633    4.04915993858768    7.82421580482578
C         3.14581874532440    3.09554923348678    4.30542604218809
C         2.11109659200715    2.15861807292914    4.28434027661457
H         1.93268436890427    1.56986028363461    5.16898485154093
C         1.36065356142409    2.02197327545633    3.13612928462647
H         0.55457924249622    1.30522949710084    3.09220524524063
C         1.66473709801994    2.82559567727841    2.04471548534848
H         1.10362253974708    2.75739441833641    1.12721525940173
C         2.70027829625658    3.73116144865742    2.15373796042185
H         2.95340810454796    4.40015296784602    1.34271906108970
C         5.07209780073311    5.79212295923830    6.51368902430958
C         5.43679743987747    6.72020270543703    7.48491877334616
H         6.12856685183636    6.42824056822677    8.25752982020737
C         4.89170802920631    7.98670556820647    7.41070883498430
H         5.15846579253656    8.73866038322948    8.13825328319252
C         3.99253181387952    8.26563880904479    6.39113720955851
H         3.53056762351178    9.23525554526855    6.30373719749133
C         3.70706966349169    7.27820439754429    5.46908969749935
H         3.03060738992600    7.45663635560105    4.64450616022148
C         5.51473345105016   -0.28655731220824    4.13998763247695
C         4.98679071371950   -1.48736142137238    3.66325235642049
H         5.19175141314436   -2.40194282987816    4.19437828985639
C         4.22895482160583   -1.44827762296332    2.51092520987683
H         3.80171469763983   -2.35492889325011    2.10860109196127
C         4.04279072287104   -0.23030858679688    1.86599923885602
H         3.48249510121804   -0.16433898757193    0.94742511619489
C         4.59700098604631    0.90102251283876    2.43036461851497
H         4.50097330665562    1.86994235926284    1.96145703678494
C         7.72775287293291    0.13788043158679    7.81598651383488
C         8.66630359683611   -0.03649114319696    8.83155403360511
H         9.69626656086390    0.22901110703877    8.65980553438859
C         8.22111735379784   -0.55097472303009   10.03456700985694
H         8.91276207075833   -0.70386371139593   10.84997142734727
C         6.87528333859992   -0.86412845946508   10.18002232142264
H         6.49442328094759   -1.26317682776835   11.10655135102542
C         6.03511088559486   -0.65191786730649    9.10141431107179
H         4.97926504082888   -0.87941570606614    9.15277082605513

