48
CSD_code = RENDAQ | q = 1 | S = 0 | Stoichiometry = C20H20ClCoN5O(1+) | MND = 6
Co        4.33268399303731   16.73953264122542    6.00507835229317
Cl        3.50641946801213   16.10748496597468    4.05675425096995
O         6.42441075338447   16.55066841672777    9.30843672217443
N         4.06236016325680   18.61401606998170    5.75641563316138
N         5.06159170253138   17.24196367982289    7.62536006792227
N         4.73555847838960   14.90621398188324    6.53519783416644
N         6.10197049861895   16.74236983060409    5.24806879807867
N         2.63463349365180   16.41643720112462    6.82585455521249
C         3.44480316628713   19.20476244322922    4.73011851602645
H         3.06168997189899   18.55218277454573    3.95788864741030
C         3.29663752373742   20.57519262836004    4.63861053424233
H         2.79164142461107   21.00285136328372    3.78832672355457
C         3.80644003825013   21.37521729098232    5.65214742880136
H         3.70804192527930   22.44859199278402    5.61219743502682
C         4.44339296651673   20.76468814484500    6.71773034905101
H         4.85377533182893   21.34345022136207    7.52991136692841
C         4.55937372353242   19.38043352530601    6.74608705719584
C         5.23271298177692   18.65349039322135    7.86464433155274
H         6.29918502189733   18.91897615127878    7.91603464397082
H         4.79032081442120   18.93709450795766    8.82962904488701
C         5.69373392237123   16.33706074414988    8.36249633275517
C         5.32553094760911   14.91324823842239    7.89437778994865
H         6.21719139415063   14.28452355724213    7.94795508329680
H         4.60469892495797   14.53194072106910    8.62162162061057
C         5.69592251838435   14.39830415136258    5.54818847349953
H         5.15174619589810   14.12390079317173    4.63645036327486
H         6.23471798134242   13.51729976411709    5.91292487993958
C         6.62767059705709   15.51113066042486    5.17662268249940
C         7.92180700771011   15.28437415124441    4.73361236246366
H         8.30389538468237   14.27671707306409    4.69461305764864
C         8.70223003864794   16.35861610435240    4.34331859511601
H         9.71255556221907   16.20915297712330    3.99714934962048
C         8.14969499099401   17.62815646451278    4.40653797866917
H         8.71142807421404   18.49740319757384    4.10634202662454
C         6.85363385773410   17.77351005434272    4.86542167149650
H         6.40981905151615   18.75672658709169    4.91690208458458
C         3.45749579211274   14.18176810535017    6.52168832672761
H         3.50436298773099   13.25476149546221    7.10287487320003
H         3.20074561572917   13.93352680183132    5.48517413583450
C         2.39456895845660   15.11197169548568    7.02560854359755
C         1.22325177648625   14.65924822517398    7.61330802237060
H         1.07017168819922   13.60069017445849    7.75161147509087
C         0.26437201130703   15.57640764672790    8.00793505690586
H        -0.65625467374483   15.24903798560012    8.46424423125938
C         0.52000659994673   16.92317730949583    7.80283657416407
H        -0.19325743411719   17.67718197206202    8.09255136256232
C         1.71393410741875   17.29710502325808    7.21406066084134
H         1.92818268006593   18.34244010132883    7.04748009277133

