56
CSD_code = RENJUQ | q = 1 | S = 0 | Stoichiometry = C24H23N4O3RuS(1+) | MND = 6
Ru        6.41438060873095   11.50267848429733    0.63298887405559
S         5.53494764413484   11.89694964920713   -1.43369678233344
O         6.66952134173834    9.57877920890047   -0.10403554277658
O         7.39585747723269    7.56100854414495    0.46772251469997
O         5.02670647642805   13.24353888571706   -1.64868893090677
N         4.56587033223166   11.28399969902742    1.39534141975981
N         6.07281640522600   13.30975730576713    1.04270443896157
N         8.18750492169106   12.26752150904097    0.07383389684103
N         7.27392217412442   10.60116744622234    2.31815792958446
C         3.89140445424112   10.16241736877894    1.63034173873006
H         4.39793629430429    9.23998324907129    1.36953588624092
C         2.61426366034288   10.15381126876060    2.16234704924588
H         2.10720144834610    9.21879143608147    2.33419313910593
C         2.00756874227329   11.36705501255738    2.46166534448246
H         1.01097450753150   11.39754890342244    2.87232751930474
C         2.70521298739501   12.53869456333249    2.22651627908023
H         2.26250042496775   13.49376391618334    2.45633896825140
C         3.99086548741850   12.47798799948325    1.69332158832056
C         4.82653101340719   13.64793438666793    1.41470960473755
C         4.44933969850486   14.98608977951586    1.46017898615358
H         3.45019626516835   15.26998132308953    1.74524039959209
C         5.37516991901119   15.95358930130883    1.09709392351430
H         5.10077702901825   16.99575862769023    1.12033377199865
C         6.64025835316283   15.58073733666713    0.66621996035193
H         7.34354878658201   16.32655449158085    0.33547231279637
C         6.96638844027383   14.22876305764975    0.63830433940196
C         8.21131190487440   13.62323235452999    0.16031479742373
C         9.35468978643738   14.34135926724191   -0.18317140698995
H         9.35743122651591   15.41634004776857   -0.10919125819322
C        10.48290780422477   13.66450214544367   -0.61194005899656
H        11.37529859955874   14.20615587078268   -0.88215377035237
C        10.44613090438375   12.27762074453983   -0.68331387424438
H        11.30445054453770   11.71264923127148   -1.00727403135367
C         9.27818682476381   11.62428271815856   -0.33227812856033
H         9.19981966295409   10.54427893156021   -0.38613396019150
C         7.17852905545734    8.73117036334317    0.70140217552563
C         7.53031429392009    9.30150873297674    2.08537851201080
C         8.09660308102825    8.46657313697670    3.03529709804072
H         8.26733773094430    7.43631754222236    2.76397869615158
C         8.41487463371684    8.98474774852646    4.27779381467655
H         8.85621413794702    8.36644580291404    5.04343315689365
C         8.15032766692750   10.32347866515579    4.51316020398056
H         8.38373722664410   10.76810065236689    5.46748894140170
C         7.57988741056881   11.11087056763251    3.51848262020671
C         7.29317970952919   12.55750249375236    3.76839842593913
H         7.84161609048202   13.17945177611852    3.06026809010471
H         7.59094314247478   12.83615736956687    4.77495139520376
H         6.22711751802018   12.75645798957368    3.65494649451928
C         6.68746948235590   11.49360816948577   -2.77323128683663
H         6.16797402890948   11.55834850148255   -3.72243939938333
H         7.04585040604486   10.48738534427178   -2.58398945177392
H         7.50556991399217   12.20657124559412   -2.75227309169670
C         4.23186208421919   10.71195627610290   -1.85914707481940
H         3.36776601793033   10.90899394663321   -1.23187723720784
H         4.63418491565821    9.72278788753115   -1.66462124763069
H         3.96414930148802   10.83398172230762   -2.90242777303588

