63
CSD_code = RENJAW | q = 0 | S = 0 | Stoichiometry = C28H27N3NiO4 | MND = 4
Ni        5.41092122806504    2.29727971381265    3.02149462666473
O         7.16192775392077    4.35667727480362    5.69727807096565
O         4.02843207391352    0.72777271318029   -0.25114299256196
O         6.41475497310905    3.33350380046115    0.94894172061966
H         5.55735724421018    3.59283697390256    0.58625801401875
O         4.12708129631569    1.85350975850888    1.66760537237007
N         6.53030755682159    2.48211739819839    4.50112215367287
N         6.44848895681809    0.96507068558119    2.31023855853562
N         4.26060062777430    3.72702689985889    3.74933473522906
C         9.32200783564422   -0.28415895317920    5.96792256155164
H        10.01510176789572   -1.00925134843012    6.36535076628326
C         8.94171338749745    0.82030048463786    6.72627317071697
H         9.34209411516954    0.95606344305656    7.72003376822187
C         8.05113967519525    1.73730496945729    6.22769116226815
H         7.77020983913026    2.58090039254579    6.83596458084110
C         7.49281055966453    1.61172425640061    4.94039331900928
C         7.89119308813035    0.48618000629348    4.16636370032733
C         8.79794492226496   -0.43954170412875    4.71006756569658
H         9.07607460924655   -1.30023281478987    4.12042694067102
C         7.42104526048522    0.28313700911825    2.81810798019593
C         8.13184777596238   -0.73372278169354    1.99643273546169
C         7.52595187838722   -1.95184198473172    1.70677029974554
H         6.53694460584736   -2.15979872840697    2.08824925446787
C         8.19261180712306   -2.89044150332254    0.93948652116781
H         7.71901663258259   -3.83546462143103    0.72032356102727
C         9.45993373000728   -2.61758097846562    0.45192275233375
H         9.97634847628611   -3.35040589737549   -0.14948593750012
C        10.06464482516709   -1.40480156116212    0.73759927691357
H        11.05321567461245   -1.18998712765442    0.36035131081458
C         9.40609463633434   -0.46460584475406    1.50986440317188
H         9.87609526855571    0.47977999141568    1.74239141577935
C         6.82832569067159    2.16012345468539    0.27453881645933
H         7.91188086576175    2.09329866877534    0.41560961929473
H         6.60201394388696    2.21149862754411   -0.79490562754260
C         6.14927008341068    0.91629996192167    0.89307675102265
H         6.49963646624160    0.00985805378518    0.39133116551390
C         4.61140935758002    1.14223310197321    0.72671711638648
C         2.92625039133692    3.20475929212999    4.09081201557747
H         2.52545186611643    2.61691043008024    3.26480461209244
H         2.24759955944876    4.03177009507232    4.33064298429774
C         3.21753527534165    2.39479840865384    5.34325507502727
H         3.79492569783699    1.50294003443653    5.06812455282726
H         2.32091827711292    2.09230576792439    5.87934212652135
C         4.08772852560196    3.37125706287021    6.13332740545915
H         3.46617596178293    4.06547540152285    6.70006085330596
H         4.75673561304073    2.86690400563228    6.82977004622763
C         4.86896856643053    4.12882475295547    5.03567327900979
H         4.80428159009459    5.20850872208015    5.19225182276349
C         6.33516843373048    3.69113633999243    5.10474878094486
C         4.21988334127442    4.82175739150656    2.75291806303184
H         5.25549922298145    5.08833995151046    2.51549694788230
H         3.73228113029454    4.41370326853427    1.86248868486420
C         3.47771623807115    6.05854611382615    3.19658130538372
C         2.10635674720358    6.17236101071767    2.99456163917877
H         1.57198874431319    5.38265250175982    2.48571650104105
C         1.42218260722614    7.29771173888493    3.41993061536830
H         0.35704721936579    7.37102331688417    3.25769964514341
C         2.10190747842332    8.32870600656025    4.04588542022266
H         1.56790779771992    9.20566364805287    4.37965277906540
C         3.47145870084115    8.23815429635305    4.22621001472931
H         4.01093009313340    9.04690506041301    4.69598227629222
C         4.15555054365262    7.11267364494552    3.80026701727284
H         5.22830188793404    7.06144994629662    3.92479632664799

