75
CSD_code = RENKEA | q = 0 | S = 0 | Stoichiometry = C24H32N6O8S4Zn | MND = 6
Zn        5.42037453175356    4.40600322333770    7.94829368948978
N         6.46946271713307    4.05700378318696    4.09892084507954
S         6.94491097335455    5.20615965740664    5.04822868439415
S         6.64567543937004    4.32919658869025    2.51971593143068
C         8.73535593255954    5.41897199225072    4.97832581105484
H         8.99542445722670    5.51978017967035    3.93086352906645
H         9.18499622677158    4.53710479917435    5.41268655665442
H         8.98064575881266    6.30820835045905    5.54319635124190
C         5.31573492789128    5.46734274525566    2.06033908381350
H         5.55287836502772    5.85998073050582    1.08078601961866
H         5.30606242691715    6.24939708967818    2.80798861166206
H         4.39503722193110    4.90142853327138    2.04176840439184
O         6.32233750966130    6.48103019964869    4.75544646062138
O         6.69802482705756    4.75042517607940    6.43050760625098
O         7.89935493780132    4.99526622448063    2.25409335209703
O         6.41551695716664    3.08926986299281    1.82961800707570
N         3.76567931749853    5.13103075945700    6.80553220631748
C         3.67625014651953    5.04728454572263    5.48371987889131
H         4.43261734577221    4.46353319358248    4.98088485098066
C         2.68267433780234    5.69119954030698    4.76015698837289
H         2.65188984263340    5.59763842425899    3.68671449982080
C         1.74457927089112    6.45303138791206    5.43531450705142
H         0.96232882498023    6.97191269761084    4.90121105753814
C         1.83339935710652    6.52937996642311    6.81682266801506
H         1.12338176672225    7.10565298345727    7.38928651989209
C         2.85858165905814    5.85423104680416    7.45566508722655
H         2.96461301256874    5.87489948792397    8.52967210922388
N         5.69209478385377    6.46761041435784    8.61555792329920
C         5.48358402180057    6.83504343514122    9.87825730756004
H         5.10884992753281    6.08059509768438   10.55826852802318
C         5.69068809625717    8.12885543534241   10.33311439947900
H         5.50698878275212    8.35611944112795   11.37113651202015
C         6.12477159400170    9.09443739603705    9.44055022560401
H         6.30041129796967   10.11139528076711    9.75992848593033
C         6.31525778221407    8.71837733003927    8.12019207117467
H         6.63365314433778    9.43108254692846    7.37572984793589
C         6.08795252611404    7.40158066628996    7.75306037964626
H         6.21838467812562    7.09068972437451    6.72808113918980
O         4.14273822731965    4.06156798034549    9.46609981965365
S         3.89588234756346    3.60583223624302   10.84838496397157
N         4.37135945077081    4.75498389113965   11.79768398843303
S         4.19517799119701    4.48280074242130   13.37689518105847
C         5.52511914279857    3.34465475766767   13.83626431385414
H         5.28799986489022    2.95204250176593   14.81583383614661
H         5.53476822176577    2.56258308925052   13.08863252313058
H         6.44581719010161    3.91056981361518   13.85479853287301
O         2.94149812662384    3.81674433529494   13.64254615131968
O         4.42535882773802    5.72273088653453   14.06697949908514
C         2.10543529603928    3.39303895921630   10.91833817525366
H         1.84539235651898    3.29222958917761   11.96580678149584
H         1.65578937119753    4.27491208526160   10.48399359086173
H         1.86012034136756    2.50380763640049   10.35347036795248
O         4.51845330096439    2.33095496590451   11.14114638740544
N         7.07499981805061    3.68092834288056    9.09110646950938
C         7.16432341670048    3.76458573876990   10.41293076396638
H         6.40800766756419    4.34846152552332   10.91572474546944
C         8.15791093649676    3.12072465158475   11.13651971347815
H         8.18871240540731    3.21435803733102   12.20995469207268
C         9.09610924928995    2.35902531896595   10.46138066440131
H         9.87831887182141    1.84010806922646   10.99551793572674
C         9.00736945245250    2.28272916751501    9.07986306326736
H         9.71734600399394    1.70635978143955    8.50742996739949
C         7.98218614290954    2.95784032038182    8.44099126005627
H         7.87613569303174    2.93709871338316    7.36698883622653
N         5.14860627825825    2.34440414260559    7.28101228970080
C         5.35690177390274    1.97703848228603    6.01827371785695
H         5.73212595326243    2.73133088831097    5.33839125821911
C         5.14998293194852    0.68317067673807    5.56344528183310
H         5.33377181064882    0.45588417428682    4.52543994515587
C         4.71593456282848   -0.28241834034552    6.45600278611278
H         4.54037606737456   -1.29941057178926    6.13664537499531
C         4.52554289345601    0.09361677471574    7.77636954002370
H         4.20716327126857   -0.61910825856518    8.52085610380207
C         4.75298925239939    1.41036939863260    8.14353465530388
H         4.62235076313998    1.72129955823392    9.16851068581273

