91
CSD_code = RENLIF | q = 0 | S = 0 | Stoichiometry = C34H51BrP4Pt | MND = 4
Pt        3.33871189898366    4.40230973242568    3.70917838567389
Br        0.87420607890605    4.58569778742668    3.70324854900810
P         5.37472143448280    3.46227340548801    4.07220361784883
P         3.80561167611527    2.00461989221495    3.91682724673683
P         4.15026169316629    1.12975467633817    1.95163463081623
C         6.80891405016061    3.62308050927092    2.82928052388462
C         7.79568073035406    4.69871182907940    3.27473972843508
H         7.27927036456122    5.63196584899714    3.49109910699056
H         8.50448582759083    4.88792340477916    2.46864606273700
H         8.36434027685412    4.38948100304674    4.14808143516968
C         6.13621663626621    4.08457497195253    1.53752642138372
H         5.47416872394590    3.31087272304856    1.15155105629538
H         6.88605195732720    4.30429362601857    0.77901992737133
H         5.55494400443528    4.99201637946509    1.71656687252019
C         7.52180914422928    2.29486429055408    2.60905515475711
H         7.96004879537980    1.91686013578703    3.52941008142948
H         8.31974073060469    2.42523299884266    1.87841886586908
H         6.82337348920676    1.55493956808468    2.22188485907440
C         5.90310841009956    3.48354261546065    5.89104434842753
C         4.67343978706209    3.05944800132840    6.69488716438260
H         4.47368217867303    1.99566293351285    6.58355890775078
H         3.79011316561402    3.61314917402027    6.36221584368066
H         4.82738925039488    3.27054737632493    7.75212366329576
C         7.04943320992458    2.51274504527556    6.15569137157686
H         6.80665208011523    1.52386595842506    5.76801876784556
H         7.21684220344279    2.42626159277843    7.22897018267034
H         7.97676213459141    2.85147839095982    5.69930760177069
C         6.25933279952505    4.90976400724228    6.30482297199373
H         5.42169466698169    5.57040150356899    6.07844729073477
H         7.14312552307377    5.28179961807197    5.79629364321625
H         6.44389244775912    4.94887516056545    7.37798684464380
C         2.45909282392332    1.45870089469269    1.11349029859859
C         2.58486135473940    2.92183052377148    0.67488230592166
H         2.79587019911629    3.56332840702606    1.54506499889876
H         1.65447135168730    3.26750284905150    0.22779904613489
H         3.38839963171394    3.04381850745314   -0.05217173009253
C         1.21936790750347    1.30477212435750    1.98887199206995
H         0.97572597492163    0.26397884798513    2.17528129005795
H         0.36771024210821    1.76404176475470    1.48800291833551
H         1.34058134147611    1.80902238781367    2.94595550590911
C         2.32533776078487    0.59333431990644   -0.13954212073595
H         3.24099520045195    0.61307241963563   -0.72999361148319
H         1.51230610473942    0.97328518498560   -0.75773134581025
H         2.09317102321762   -0.43831268800513    0.11412315330197
C         4.24943589705262   -0.70005935034560    2.51054437594278
C         5.38441549636210   -0.77857502644808    3.53603724263597
H         6.31514041050969   -0.39542744081708    3.12127024510049
H         5.54844757102945   -1.81576299499183    3.82710686799495
H         5.13916984809971   -0.21109822808346    4.43329330879559
C         2.98317705046301   -1.27227956943590    3.13686094281052
H         3.20450112922453   -2.23908367917235    3.59011009469769
H         2.20866871820039   -1.42685953980406    2.39072478778141
H         2.60230270393206   -0.61074776142469    3.91414072057159
C         4.66547940920802   -1.52852821234383    1.29290313944038
H         5.55781701164509   -1.10659379273453    0.83132968173505
H         3.88050460931315   -1.56578094358699    0.54364892684952
H         4.88994605387784   -2.55052063431709    1.59754413622633
P         3.45397184787373    6.71487761398609    3.69375824594186
C         5.01346086852217    7.57367621334200    3.27856232923688
C         5.92293021654744    7.89971268531925    4.28187460734252
H         5.66638330497281    7.72580332016807    5.31732867754702
C         7.14713953409394    8.45798064947873    3.96456962746623
H         7.84007539970441    8.71192004525050    4.75369494438499
C         7.48597562494537    8.68833981513030    2.64098949786384
H         8.44359480827338    9.12201546883312    2.39447194495773
C         6.58989785800797    8.36181550581020    1.63682295742345
H         6.84640109302827    8.54154540037067    0.60301004004464
C         5.36316075021471    7.80612725478138    1.95135118827600
H         4.66702421415066    7.56237586017563    1.16109236068134
C         2.99670854488757    7.49692421217637    5.26740014893671
C         2.45458333919788    6.69381045555486    6.26360427178334
H         2.31809070856457    5.63417612654608    6.07729580167856
C         2.07989665937582    7.24243979948104    7.47670314866036
H         1.65489809401197    6.61322693642818    8.24433271011989
C         2.24815880913237    8.59826415438966    7.70045303934059
H         1.95412341832045    9.03132329754688    8.64519371393983
C         2.79672975571181    9.40352949050863    6.71356807625314
H         2.93038012058993   10.46097750346159    6.89109125852854
C         3.17355860766203    8.85919134313905    5.50032434811411
H         3.61420857704965    9.48516757384643    4.73549718420243
C         2.30992249395225    7.42270028394611    2.46426777697808
C         2.26306982161734    6.77813825814502    1.22994749519131
H         2.87960188457364    5.90096937079805    1.06412816456730
C         1.41729022339759    7.22919236798930    0.23633776651569
H         1.38438228683721    6.72133424926575   -0.71642336343563
C         0.60025439101737    8.32305393961334    0.47271363618783
H        -0.06920222255004    8.67387910556003   -0.29867252924200
C         0.62705860096337    8.95252171391008    1.70507969392144
H        -0.02482876320652    9.79226647629369    1.89696920406472
C         1.47672980118609    8.50650366800689    2.70284462695431
H         1.47194713231134    8.99084730993924    3.66822910617211

