61
CSD_code = RENLOM | q = 0 | S = 0 | Stoichiometry = C28H18N2O12Zn | MND = 4
Zn       -1.63538607320200    6.33107899524388    4.87884641231256
O        -0.35869023692062    6.65492176296847    3.34006201930934
O        -1.63377218722490    4.88563884210911    3.40821889098118
O        -1.05664354211625    1.28967042905182   -0.06851343955467
O         0.47985215703722    1.61982867242755   -1.64821866770331
H         0.19154734615040    0.73972597451165   -1.93647673823160
O         3.03394220060497    5.80488755944617   -1.93836787798707
O         2.69695312041811    7.36366441333792   -0.38189411927009
H         3.36549012816868    7.84295226984238   -0.89593004481741
O        -1.09726389043399    7.69808725899317    6.32456679479604
O        -0.38519098443402    5.63566211496054    6.31305093726588
O         2.62585715382715    4.03693626438971    9.78757479045450
H         3.16667044248663    3.37973983453925   10.25287565372967
O         3.53306227348474    5.41834119467466   11.28245492980086
O         2.29122055164576   10.16785850483889   11.13304159265477
H         2.29704577653608   11.09163609316766   11.42866207221235
O         0.79228513795630   10.94400089585528    9.67837102340843
N        -3.36244171006335    5.53019851369390    5.75344699592469
N        -3.12596025618367    7.60120627488269    4.13504019550216
C        -2.88230356239139    8.70566678882365    3.45591153853699
H        -1.86692046563935    8.82232085718229    3.10588504721479
C        -3.86231093387728    9.65600471741663    3.20808561467316
H        -3.62999500347026   10.54779294756820    2.64869112468447
C        -5.13545740992000    9.43348058277507    3.70693884684604
H        -5.92385628063252   10.15432546182511    3.54868733426796
C        -5.38551504661838    8.27299169130250    4.42095461590855
H        -6.36418455475514    8.09211632242044    4.83524971343725
C        -4.34670933989527    7.36498395902724    4.61511642129745
C        -4.49951797025681    6.10528439961415    5.36245064643495
C        -5.73446276890963    5.52416336235355    5.64257812432506
H        -6.65057124423449    5.97727709196684    5.29967323550363
C        -5.76885945093304    4.33280044389516    6.34866333067664
H        -6.71423294124981    3.86117774761878    6.57242925986567
C        -4.57646201611401    3.75599824847692    6.75454047646561
H        -4.56366279115841    2.82911644590795    7.30490877042362
C        -3.38982830709469    4.39474995376730    6.42459239982322
H        -2.42527642820520    3.99339090885168    6.69971076487322
C        -0.08479290361994    5.05044689438142    1.61484756142743
C        -0.42831859862253    3.80414793405447    1.10941307007566
H        -1.16269437049599    3.20101887932729    1.62194565928656
C         0.17672648699117    3.33049279906567   -0.05251741724595
C         1.12116354659308    4.11038724977144   -0.70975010922388
H         1.59842772537056    3.75928491240258   -1.61182690348715
C         1.46044064620927    5.36206844306703   -0.20375614858860
C         0.86103103400371    5.83077315487809    0.96129418103235
H         1.12203181100934    6.79442430094135    1.37034997070542
C        -0.72897850377486    5.55519409184635    2.86721601999092
C        -0.21064011665831    1.99199082957283   -0.56125626279087
C         2.46772885803419    6.16647707385829   -0.93750657762363
C         0.48245929369943    7.07598243737427    7.98593116693549
C         1.21140472277445    6.04891469090686    8.57277310278158
H         1.14580444924269    5.05425106162077    8.15996200691380
C         2.01622139378669    6.31359057218841    9.67664635254466
C         2.09940986015471    7.60589732640766   10.18739745046133
H         2.73189084713638    7.79577408366280   11.04104447958683
C         1.37134564513443    8.63218167665897    9.59678548468125
C         0.55976081587011    8.36433511071307    8.49673669289724
H        -0.00749148053175    9.15920171312451    8.03611237898423
C        -0.38209657019570    6.79072191419344    6.79879893069165
C         2.80347094962902    5.24494517517634   10.33868620403175
C         1.43454356587126   10.02161987508905   10.11249401989853

