78
CSD_code = RENTIO | q = 1 | S = 0 | Stoichiometry = C31H43IrN2P(1+) | MND = 6
Ir        7.10074436150697   13.07111616318031    2.79262705773118
P         8.31897032100740   14.97178561100962    2.25731375708092
N         9.32226322914075   12.35998914628367    0.90943183771655
N         9.62261797533460   11.31547082174045    2.78663310602388
C         8.80980002406178   12.14676360006391    2.13225176681417
C        10.56769754188759   11.64024837309035    0.67964491142865
C        10.75257171867167   10.86380703010956    1.98177997399678
C         9.50293814959945   10.89503688750017    4.16852470055797
C        10.73757326286210   11.29786453400376    4.97634296310084
C         9.26156741049173    9.38810267507873    4.26671023845136
C         8.93065011890870   13.39397574959175   -0.02898683464885
C         9.16836154489904   14.77458032622053    0.61065850802665
C         7.50462876487148   13.18130395714062   -0.56888367496851
C         7.33016878654063   11.73457878831980   -1.02916535683575
C         7.21498977448237   14.10250519151495   -1.75158185647793
C         9.71358596337107   15.35884328222643    3.36325975127814
C         9.75978661937599   14.74016795805284    4.60704556412235
C        10.77979440769803   15.03303434007933    5.49588157668726
C        11.75985397289396   15.94609492080844    5.14350327037081
C        11.71361326181185   16.57353543493704    3.90755686722436
C        10.69269912616659   16.28770006023239    3.02011122227025
C         7.51981893422527   16.60378804558630    2.10620957211242
C         6.66126924500538   16.84512093725456    1.03558897377339
C         5.98838824661265   18.04801917941083    0.93477312740183
C         6.15015000995285   19.01626516363423    1.91298090630333
C         6.97656607251579   18.77072317258615    2.99672485195398
C         7.65270939406213   17.56793994292762    3.10064006311128
C         6.04978930707614   11.31790985537039    3.63465054115682
C         5.74295550653079   11.43892782106789    2.28621356140892
C         4.45802476616521   12.00592803742612    1.73886065772280
C         4.01243588858229   13.31198704088892    2.42192531118257
C         5.18102960684825   14.14791195024192    2.88477856598745
C         5.73687791713571   14.07896567633813    4.14705429064810
C         5.30103766578274   13.13784139031224    5.24028763510673
C         5.10664886993629   11.68868615192850    4.75744535244824
H        11.38600022495930   12.34332109507480    0.49393194717482
H        10.47044300391747   10.98580131787189   -0.19102834711329
H        11.69599647845587   11.09930973311805    2.47762895887392
H        10.69723586147921    9.78282833068514    1.82920260516097
H         8.63832547491428   11.43431411145769    4.56795010991501
H        10.52703887306267   11.18184400053743    6.03539335673345
H        10.99858603086033   12.33618685569841    4.78712945651723
H        11.58989851891276   10.66769535856668    4.73605383950021
H         8.99067541814466    9.12529456346125    5.28507326452641
H        10.15912923412357    8.83392798652707    4.00452382176845
H         8.45841753279952    9.07774984081391    3.60219001942854
H         9.61388508562391   13.30015018645833   -0.88203177958687
H        10.24277251783904   14.88830555516121    0.78021439128329
H         8.85172564176865   15.56641324427882   -0.06713246936226
H         6.80113003899109   13.39053117761198    0.24844035580995
H         6.31106985364180   11.56878202292823   -1.36696281896581
H         7.99809023144041   11.52167243408404   -1.86126847009621
H         7.54367503114131   11.03335163548235   -0.22820597606973
H         6.20339041171692   13.93212734146422   -2.11090699097722
H         7.30658628653868   15.15425899245344   -1.49809583887342
H         7.90116878737082   13.89288665365049   -2.56951144569505
H         8.98274152463540   14.03244741683057    4.86808172906079
H        10.80933996996384   14.55409844141497    6.46306319803991
H        12.55642906163811   16.17612526635180    5.83396482518808
H        12.47144989878301   17.29387305711323    3.63954659353186
H        10.64479918365610   16.79876623824413    2.06825096432059
H         6.51537171156286   16.08281653742982    0.28353652016802
H         5.33304690627869   18.22893929416995    0.09617578855204
H         5.62646959314869   19.95613209859344    1.83397248248232
H         7.09450257567480   19.51747596120330    3.76704625016081
H         8.29139064626521   17.38227527963728    3.95231833837189
H         4.59254995811828   12.18758415591109    0.67114434706638
H         3.67241212936687   11.25016926094702    1.83577084818004
H         3.42347779928097   13.89236591700794    1.71036205627391
H         3.36498477216758   13.09752580894121    3.27172792715158
H         6.05912566221534   13.15356425073814    6.02631188873172
H         4.37364146401822   13.51026551803542    5.68572124970131
H         5.28042259871700   11.01750846284927    5.59973657346693
H         4.07969073913646   11.52994722650286    4.42966156142448
H         6.24839056566849   14.96904732657071    4.51704524689210
H         5.30780935912667   15.07784645515163    2.33640351293157
H         6.23148093282758   10.74961797886095    1.60120630530062
H         6.76075464402894   10.54363639394131    3.89917104277878

