32
CSD_code = RENZUG | q = 0 | S = 0 | Stoichiometry = C17H10CrO4 | MND = 9
Cr        3.32129475950905    2.97493524821425    3.29046808793269
O         3.50707838231141    5.44016236653111    6.32126137789451
O         0.99230938271449    1.22443149586676    2.67577444055818
O         2.46207020758864    4.07827295685658    0.66599099778560
O         1.18114819834499    4.84435890685728    4.18237263370893
C         4.43851500826030    1.51214970956212    4.80152653509912
C         4.83930087833473    1.29128710107414    3.44618697632116
C         5.39936673443465    2.30948444072538    2.68937536449703
C         5.50013362047553    3.61073756594191    3.23224983565450
C         4.99216443448963    3.88594593160283    4.49325310734997
C         4.44729352156767    2.84855167738482    5.31560967321272
C         3.95486842875364    3.07253501806426    6.63448661368285
C         3.58393123167550    1.99004869372111    7.41474910873705
C         3.64871049894744    0.68609439076686    6.92653788444949
C         4.04324387941604    0.44783052267286    5.63400276257029
C         3.77023415571391    4.41209645630931    7.16354477494301
C         3.72939797981724    4.86471559778648    8.46017517508851
C         3.42691820734120    6.24175124697227    8.39261020108551
C         3.29548098145414    6.53147854333722    7.06865276610957
C         1.90964010694507    1.87226992213717    2.94235998357886
C         2.84323261997928    3.65661803491073    1.67191781319452
C         2.03285129205227    4.12916354751578    3.88067979821317
H         4.83701140824113    0.27324012711095    3.07288374315063
H         5.82074072381617    2.09927039553058    1.71332368517999
H         6.01491957246273    4.38490126954363    2.67484120297926
H         5.13345986489109    4.87247011974276    4.91217537323241
H         3.21059923030438    2.16479152008710    8.41114650804249
H         3.35782078485047   -0.13418819101939    7.56445478790678
H         4.06142337231287   -0.55833509887287    5.23984870182479
H         3.91377296918479    4.29390550109515    9.34694754216956
H         3.31971369548730    6.91850559767288    9.21502567095986
H         3.06085386831988    7.44001938429791    6.55076687288665

