65
CSD_code = REPFID | q = 0 | S = 0 | Stoichiometry = C20H34Br2CdN6O2 | MND = 6
Cd        5.82789266597021    8.56199984674645    3.62189563237381
Br        5.94583992240725   10.00595591498779    1.55757058653730
N         2.82700134698963    5.46851092415409    3.42061686851477
N         4.09623661660970    7.10410097005002    4.54443624869222
N         3.97866648323254    7.38348356159293    6.79856743443561
H         4.61576819554874    8.17555371631606    6.69162728493254
H         3.58117145064966    7.17942180329168    7.69784044523047
O         4.30223678215970    6.82004079243371    2.33594108435781
C         3.78201532710529    6.49535813952004    3.39279824584930
C         3.58038399240787    6.74020674276384    5.71012302918305
C         2.62377203380338    5.67606600101017    5.76303629519234
H         2.18725869378055    5.37183267832745    6.69811915282084
C         2.28162054142607    5.08707906990579    4.59367068131795
H         1.55451487862050    4.28828720077038    4.54201354325810
C         2.46402084929019    4.81800928109750    2.17711718936439
H         2.72318645547111    5.51129190943355    1.37348783339331
H         1.38401542440071    4.64672058578118    2.17707084284658
C         3.21051865832809    3.49672317738650    1.97970648754124
H         3.01654147321195    2.83667397311572    2.83004863012360
H         2.81353375972593    3.01304202286803    1.08528552541223
C         4.71455821809877    3.70529710428771    1.82095674079416
H         5.10956251881905    4.20696282508384    2.70787170309579
H         4.89788539528845    4.36690593234458    0.97236165848400
C         5.45811570150803    2.38839808436473    1.61998084962448
H         5.07143873022333    1.88264860720804    0.73225875087727
H         5.27604804343433    1.73556113287028    2.47731056989106
C         6.96010789330986    2.60956376782291    1.46339860294325
H         7.14225375078343    3.22453384649495    0.57924605468701
H         7.32981751370602    3.16533442918393    2.32774247273625
C         7.72398441845799    1.29738573143428    1.33828952111974
H         7.37602294001923    0.73482423075912    0.47510053281335
H         7.57937218503742    0.68295478613995    2.22482231832677
H         8.78930946140975    1.48211008502240    1.21876372177324
Br        5.70987404565230   10.00610202526540    5.68640340118703
N         8.82875164310232    5.46843059367815    3.82310268368908
N         7.55944803765192    7.10402930421211    2.69937524945713
N         7.67672816776574    7.38331403770594    0.44522260361868
H         7.03962611388004    8.17537613181284    0.55220605044068
H         8.07412876602714    7.17922901561025   -0.45408574247018
O         7.35367343799757    6.82004459508021    4.90789505078217
C         7.87376819740197    6.49531104124467    3.85099280001839
C         8.07516933820342    6.74009907433153    1.53364207817317
C         9.03179256158226    5.67597667176173    1.48066253478663
H         9.46823336502877    5.37173615596883    0.54554832543057
C         9.37404356432920    5.08700196237019    2.65000527052972
H        10.10115925618254    4.28821481148867    2.70160610735424
C         9.19179018549937    4.81789418154787    5.06656668395223
H         8.93269742062487    5.51116440003436    5.87022915304164
H        10.27178969721233    4.64657299261386    5.06654450566322
C         8.44527158028542    3.49662232446394    5.26400140984811
H         8.63921413695516    2.83657322579535    4.41365153318721
H         8.84227203802224    3.01293096948179    6.15841085438839
C         6.94123889185261    3.70523754916123    5.42277770419751
H         6.54621644826976    4.20687873313631    4.53585556127225
H         6.75794591969610    4.36687713239081    6.27135564510311
C         6.19765445073196    2.38836409880128    5.62381567333425
H         6.58430274944591    1.88266661141718    6.51157964968764
H         6.37973714390033    1.73546877008406    4.76653310631832
C         4.69566109249578    2.60956789734226    5.78034664870068
H         4.51350144291446    3.22458819628332    6.66446105801403
H         4.32598441544553    3.16529809991475    4.91596208494862
C         3.93175760694811    1.29741056331436    5.90551018278793
H         4.27967263653789    0.73489208080028    6.76874618842327
H         4.07639179539864    0.68292557947196    5.01901927449705
H         2.86643153172879    1.48216229884714    6.02498013108762

