65
CSD_code = REPFEZ | q = 0 | S = 0 | Stoichiometry = C20H34Br2HgN6O2 | MND = 4
C         3.61003095535912    1.07179017660687   -0.63660014527741
C         1.46156588601400    3.98966652600190   -0.48047455086384
C         2.06038958128875   -0.58267304300119   -0.07619405166598
C         2.90181883038657    5.67179755340826    0.26159620690428
C         2.27918766852373   -1.24164399217498   -1.32640091703905
H         1.72474494501053   -2.12675396156530   -1.58481256812027
C         2.60058319742506    6.46787583714450   -0.88742490451652
H         3.07436240510618    7.42279332539260   -1.03296358571945
C         3.21547923479039   -0.72023573311467   -2.15244002387683
H         3.46011856651412   -1.16849793488164   -3.10589321835497
C         1.69543919444451    5.97968398968641   -1.76703027170011
H         1.39947431749937    6.52364768453352   -2.65376084286745
C         4.88856379804618    0.97164984843597   -2.71014868541827
H         5.31427481684212    0.17420386069369   -3.32442066045900
H         5.67107302973298    1.40636846896745   -2.08312222505514
C         0.16332603754283    4.23012471719753   -2.52602682748997
H        -0.28881147982956    5.05158610345931   -3.08689698335576
H        -0.60904460146039    3.71174122146193   -1.95177966054387
C         4.27774279857910    2.06322813013261   -3.58864878357342
H         3.89178049456325    2.84783630866949   -2.93504975822976
H         3.44047642856344    1.64415090015313   -4.15319988020792
C         0.84206534340392    3.23643211921139   -3.46887763715164
H         1.65410214075371    3.73955776412508   -4.00076190688487
H         1.27236375504425    2.43758281857054   -2.86194320597325
C         5.30274671558114    2.65462829136147   -4.55153899359959
H         6.14081693739413    3.05032338738291   -3.97735677376911
H         5.68412163197700    1.86684087446345   -5.20602255087567
C        -0.14120200469601    2.64242510992021   -4.47254797257577
H        -0.96718558341564    2.17417669640575   -3.93370193057623
H        -0.55762675138244    3.44010366184478   -5.09251394949915
C         4.68925658217628    3.76406138438871   -5.40367115086788
H         4.37948938222693    4.58627135704100   -4.75374069454075
H         3.79384967802990    3.37402647615409   -5.89578438811044
C         0.53012702945721    1.60355523599962   -5.36773839271926
H         0.92940107549991    0.79909234989453   -4.74430645214977
H         1.36957880901079    2.06665464713478   -5.89323395769352
C         5.63961471563453    4.29897048908333   -6.47550732946070
H         5.08283085647293    4.98080261920346   -7.12282456530891
H         5.98718849720545    3.46849561179386   -7.09403230929766
C        -0.43614194987625    1.01276772318513   -6.39157664533699
H        -1.27815120917827    0.55438365420901   -5.86881023234427
H        -0.83242246741846    1.81534137936777   -7.01733622594226
C         6.84084159794595    5.03873331475056   -5.89912591657502
H         6.51431024388038    5.84523354709690   -5.24612710342645
H         7.43735873396508    5.46782810785030   -6.70073230350164
H         7.47670695569938    4.36831597634781   -5.32741881428877
C         0.24148832735896   -0.02879128566277   -7.27354290547184
H         1.07326675684882    0.41370408299084   -7.81773212627138
H        -0.46264385033180   -0.43470043891080   -7.99546900025987
H         0.62455738830781   -0.84927048980020   -6.67030265388954
N         3.89853350050233    0.39306150559077   -1.82530214494975
N         1.11078192557629    4.78178074514154   -1.57965106481821
N         2.74499140978129    0.51085330063390    0.22807181094027
N         2.31064897341975    4.49719877408192    0.43171345556688
N         1.19981220126332   -1.06814183519442    0.81280700330698
H         0.60304979165425   -1.84064901837629    0.57509911544818
H         0.98006883312799   -0.51782002257435    1.63810629645416
N         3.75057385948883    6.10168465597952    1.18945187509419
H         4.02839033997233    5.47172617980338    1.93654810877672
H         4.27272240381650    6.94881451644379    1.05153346208019
O         4.15013689216911    2.14178557904786   -0.40923223791686
O         0.98888162847183    2.87014228482128   -0.37381661439805
Br        4.53182083118222    3.30437684414532    3.00042240216559
Br        0.64234284818229    1.52741907199320    2.96736223173789
Hg        2.59005911924984    2.43238096675642    1.78255672635320

