90
CSD_code = REPNEG | q = 0 | S = 0 | Stoichiometry = C46H35FeO3PS4 | MND = 5
Fe        2.20798060190740    4.39004022062858    4.20394824388287
S         2.81732856936002    4.37079517825719    2.12294406361555
S         2.10824227337875    2.23552481430138    4.13121534335873
S         2.68024876126814    6.50053301995943    4.37628652518832
S         2.00477763120771    4.30233927752356    6.35579161230391
P         0.16141950145978    4.88715069717820    3.83088863433902
O        -0.53547243727633    5.47995495501992    5.14568051565651
O        -0.87344841114333    3.78591895611803    3.23139758915846
O        -0.20883867994612    6.07134790490401    2.82743139304082
C         2.69712063307470    2.74251280321597    1.58395323736331
C         3.10128646164000    2.47524206014261    0.20309746688336
C         3.87601006553467    1.35650210589999   -0.10629150545814
H         4.17173331089408    0.67872762311251    0.68044209408242
C         4.27651351846360    1.12659664946479   -1.40772710226421
H         4.87856653387900    0.25927318589821   -1.63556526076922
C         3.91646527372143    2.00587074262184   -2.41679920167951
H         4.23036497888196    1.82083076024561   -3.43346913429080
C         3.16234679522145    3.12711060601975   -2.11385959715877
H         2.88599746056909    3.82183055623311   -2.89348598845468
C         2.76202138270424    3.36548864443916   -0.81299967223574
H         2.17745951492071    4.24031781437896   -0.57112166918111
C         2.30551155072558    1.77719916357695    2.48600734180626
C         1.95195808961777    0.39971148316508    2.14774397135148
C         1.27482894719387    0.10722007825453    0.96340331093371
H         1.03487270954504    0.90332817411299    0.27465704259074
C         0.89791371546555   -1.19044464666079    0.67863196250604
H         0.37416648128448   -1.40413156422844   -0.24193325760185
C         1.18150581036170   -2.21396262286608    1.56834492570816
H         0.88626536120523   -3.22767020447389    1.34071831041865
C         1.83969745145085   -1.92964048194394    2.75318726682783
H         2.05909545476916   -2.72155575332133    3.45416045494920
C         2.21852617898166   -0.63384869907041    3.04344650529867
H         2.72961154589613   -0.40741755134998    3.96711468827103
C         2.27839938028931    6.93295790959930    5.99177776605820
C         2.35594834203645    8.35467712606969    6.33353688545631
C         1.89154129760586    9.31319362507687    5.43478904743083
H         1.47659070534062    8.99185611858993    4.48999154646423
C         1.95576725543230   10.65768288962494    5.74641812985657
H         1.58411174050641   11.38955017322958    5.04400915132338
C         2.49764447225467   11.06597078976186    6.95362559226677
H         2.54896828417304   12.11682625200522    7.19733293428339
C         2.98490432661058   10.12143587244691    7.84279534064327
H         3.42491739717276   10.43558976136239    8.77779231232144
C         2.91765721199676    8.77578086626680    7.53866828530562
H         3.31440987108541    8.04463953704090    8.22649781948183
C         1.95174923859115    5.93663755907567    6.88229219770079
C         1.48622189371660    6.16738947540849    8.25193441631471
C         0.50460317181841    7.12106358313132    8.51711702495399
H         0.08391634001169    7.69564762812149    7.70569906441122
C         0.05628852574844    7.31486757726934    9.80935575019500
H        -0.70738992416879    8.05373336797020   10.00385796897856
C         0.57768578798757    6.56469313568977   10.85102715545490
H         0.22925770470398    6.72435171659419   11.86074486103832
C         1.53978706417527    5.60268443355333   10.59153130527244
H         1.94295913439841    5.00828592300589   11.39831203137143
C         1.98611131652109    5.39835431077290    9.29995768603780
H         2.73288798888191    4.64703053179526    9.08916871768372
C        -1.71723219988866    6.21289632155331    5.12637968801430
C        -2.94288882182772    5.56910787411866    5.07783440172362
H        -2.97897932864931    4.49220626655849    5.01031549727386
C        -4.10513747796202    6.32029918601866    5.12308728986729
H        -5.06210658251241    5.82173878220013    5.08447414354064
C        -4.04315969738130    7.70013178718484    5.21584425700704
H        -4.95274652548733    8.28062975487132    5.25036569871825
C        -2.81322949918517    8.33513937835606    5.26157851173812
H        -2.75925115943166    9.41111998253715    5.33137557564352
C        -1.64604772081410    7.59435107860850    5.21253779251015
H        -0.67822960318318    8.07117316072785    5.23994005135519
C        -0.99097541765235    2.47924145881212    3.65033242430613
C        -0.85168814319728    2.12656166771776    4.98437493304175
H        -0.61328493009088    2.88806673074062    5.71309195455951
C        -0.99123787691917    0.80106771339950    5.35532705790766
H        -0.86860481883012    0.52625357606161    6.39157421708883
C        -1.27233294929548   -0.16474261623817    4.40440609250435
H        -1.37045761472736   -1.19912992224624    4.69597938965883
C        -1.42027439356328    0.19555439140170    3.07597141345077
H        -1.63224263188059   -0.55486757385663    2.32991619327424
C        -1.27817642766298    1.51650149460128    2.69265638466091
H        -1.37579516533571    1.81178839360408    1.65937706821158
C         0.16109657953647    6.16394423802346    1.49604494899215
C         1.13948365230366    7.07796534909968    1.13364923564540
H         1.64641244428836    7.64175785021594    1.90072329956195
C         1.46355616936630    7.23360061291865   -0.20211183577547
H         2.22986841140895    7.93868239692881   -0.48522219271758
C         0.81558393234113    6.48344450041079   -1.16939494016153
H         1.07274024318301    6.60562753016086   -2.21083113792272
C        -0.15657428231589    5.56879426501922   -0.79886257649772
H        -0.65725149071286    4.97538638549103   -1.54948459733620
C        -0.48773768338950    5.40462828790636    0.53502065913782
H        -1.24371455366900    4.69898358284517    0.84245600026156

