25
CSD_code = REPQEJ | q = 0 | S = 0 | Stoichiometry = C12H6Cl4N2Pd | MND = 4
Pd        9.27051093547724    5.38559257537708   10.44992257558525
Cl        7.44580043044057    6.07625560708599    9.42026860975301
Cl       10.08810658816267    4.65678375492007    8.53472414203061
Cl       14.18069523128185    3.72980776293540   14.40193496827359
Cl        7.78856407612242    7.15631279623903   16.54410468398420
N        10.88751496409839    4.79941024069393   11.52037616347697
N         8.64208314338080    6.00727691360426   12.27284375406742
C        11.99332093365013    4.19918876430413   11.10771592048979
H        12.05085988040126    3.98572676627848   10.04580270539657
C        13.02726371823856    3.85699326441787   11.97420959571410
H        13.90886692516331    3.37005404034672   11.59070997689406
C        12.91311715695393    4.14593409300259   13.32119964344528
C        11.74780814253289    4.78439053777739   13.79577468221102
C        10.75682938646530    5.09130791107127   12.83673182066389
C         9.55105497474667    5.73909427573754   13.24081474784065
C         9.35011859978875    6.07101294576419   14.59928477872187
C         8.13448137801849    6.71015444849772   14.92259135998890
C         7.22046336279234    6.97575821992461   13.92013705700027
H         6.28612824020635    7.46333421122683   14.14518734654802
C         7.51163128072267    6.60895982501313   12.60953252195056
H         6.81650678726968    6.80302980011330   11.79974474881778
C        11.51361442374843    5.13159631589773   15.15461779470391
H        12.27621743672951    4.89226473012139   15.87882980619269
C        10.36679657927218    5.74659540673471   15.53894922221031
H        10.20304542433760    6.00356479291592   16.57359137403958

