52
CSD_code = REPTOW | q = 0 | S = 0 | Stoichiometry = C20H23CuN4O4 | MND = 4
C         2.07943862832576    5.74387814849013   21.21266300839093
H         1.02359328648145    5.86617154775127   20.97863545900699
H         2.19224189261575    5.28064041644878   22.19612406044208
C         2.75888912412702    4.84242066647368   20.16834230682621
H         3.75257645735098    4.57775114210911   20.54786039401349
H         2.17212141279662    3.93188411260759   20.02394557911515
N         2.70535523388781    7.04304115330745   21.22525403526156
H         2.29037138719099    7.74998906862485   20.63722218658780
C         5.55142972531122    9.13523992091707   21.67193333758362
H         5.76124238725105    8.81864300825259   22.68346115870294
C         4.64387443065163    8.39759793489427   20.93153595431156
C         4.03959726923619    7.17132414786876   21.49753645966467
C         5.00928024358163    9.89787542253433   19.06627388549691
H         4.79693580660469   10.18060032225801   18.04445462762455
C         6.15831905339992   10.26096891724508   21.14445005237295
H         6.84650718241146   10.84035939382113   21.74063076009444
C         5.87259125804119   10.63757244183475   19.83605810188629
H         6.34213139416265   11.51636272410773   19.41613165396789
C         4.36012558536388    8.74642848995861   19.57495265426173
O         3.58211967739046    8.05006968447685   18.81504473687304
Cu        1.35167017960080    5.86959110531872   17.68872803317463
C        -1.82378468725120    6.30298596477380   17.80793580773271
O         0.12558620968595    5.29450196913447   18.83737951853492
C        -1.13387750395312    5.66990617771315   18.86157327197286
N         2.66263937187201    5.99532243166942   16.28192482712135
H         2.47220432394521    5.19281406593332   15.68229237424453
N         0.16832946298879    6.68889058637406   16.50094038379907
C        -1.18138819516404    6.75688673900200   16.55360798627263
C         4.02168291154585    5.91340607628180   16.81758828339897
H         4.30337876225771    6.91575666045912   17.15426848905213
H         4.73969892647121    5.55875165512614   16.07202998709652
C         3.96529278791322    4.99978084082286   18.03782286520079
H         3.72274664275504    3.97027984299758   17.74995755691513
H         4.92482122756257    4.99622871992211   18.56772197523050
C        -3.88041013941975    6.24648728106095   19.08253748333400
H        -4.93402767959139    6.46358927461461   19.16412114451049
O        -1.82426575379948    7.21368532531741   15.61600575313496
N         2.90727465545882    5.54236546365919   18.89430599688933
H         3.20226920990716    6.59350899449946   19.06871833516673
C         2.30611595094177    7.21981544574597   15.56390871433272
H         2.89588517137693    7.34773661941009   14.64940064320855
H         2.49758160027405    8.05593691138846   16.24029189166324
C        -3.18462754825376    6.57274014757160   17.93946375001455
H        -3.67014746025233    7.05572751949087   17.10390710768194
C         0.81780228431736    7.10721516666591   15.26814682884769
H         0.38174675136528    8.05799369988298   14.94670291112704
H         0.63241344706742    6.37053886972621   14.47229037830567
C        -1.85761972939198    5.37345658988674   20.03407238411086
H        -1.32766864075130    4.88415984511918   20.83752474880492
C        -3.20234691918936    5.64239871032446   20.13412200568913
H        -3.72819994949098    5.38221100012258   21.04118679142976
O         4.65988289299410    6.32421163601492   22.11601135950112

