173
CSD_code = REPTAJ | q = 0 | S = 0 | Stoichiometry = C66H88Cl2N4O12Pd | MND = 4
Pd        9.74541567438725   14.83028776734553    6.69459712222803
Cl        7.59548942806253   15.20311327743423    5.93386456348378
O         7.83725830419149    7.48486574389183    0.55027204299382
O         8.44739743794453   17.99452347748857   12.41791493545234
O         9.66462041139884   19.46795359288328   14.77484620968751
O         8.25592945874286   18.10465977818470   16.98308639508622
O         7.16603504169123   15.14802049125943   16.76241335781418
O         6.49232109576097   14.40133079853206   13.95997703768415
N         8.88265647771201   14.26970692815252    8.35136297097135
N         8.16746060221759   13.24279813346324    8.45665666803811
C         8.13171906175983   12.32423361119022    7.42016301105008
C         9.25880046729849   11.59804549067897    6.99379135226819
C         9.11688911205499   10.72849038998741    5.91965384050657
C         7.90351579956797   10.55972420944007    5.26355093875684
C         6.78246929260177   11.21976902539971    5.76643629651419
C         6.86981841394398   12.07733806108739    6.84351727674555
C        10.54149033890394   11.56140532868106    7.78089836912377
C        10.63787519878435   10.24086550842269    8.54893514968612
C         5.64646400094034   12.75120851207326    7.39491255238348
C         5.22687812864491   12.10748456167265    8.71703812376000
C         7.81614175057730    9.72746404715964    4.05680466239087
C         8.53924748176552    8.54040473034801    3.93226863959862
C         8.50890689486120    7.81236650343030    2.76372569375840
C         7.76084843998293    8.25220865645895    1.66906602245848
C         7.01741599603975    9.42200787797437    1.79039363562645
C         7.04551434105463   10.13960408580240    2.97279219895957
C         7.15279913105374    7.90618199803253   -0.61583329737888
C         7.39721956525573    6.86361166840143   -1.69540385839884
C         8.79580540368207   15.18899143278154    9.39359764570389
C         9.65243481959563   16.29219216297121    9.39915226406187
C         9.56641308742109   17.23967067623447   10.39762320618816
C         8.61908817651591   17.10896111814886   11.41375342962354
C         7.76149603371426   15.99945634020440   11.41291114055210
C         7.84985503878942   15.05548468884082   10.42161327518356
C         9.26783006234018   19.14414896338780   12.45118314744154
C         8.90979981071155   19.95734384681934   13.68884411821412
C         9.32502079420984   20.01128724805597   16.02445163699734
C         8.03827724884597   19.44666782696352   16.63436597049272
C         7.12710585136758   17.48244682273446   17.55180901024573
C         7.45916630719960   16.01131244062407   17.82613799808246
C         7.96194581721248   15.33669561796125   15.60925745231721
C         7.69617309314483   14.17751399359562   14.65659830779756
C         6.05702080670105   13.27187432892525   13.24905957406582
H         9.99102796748569   10.19777298391391    5.57088685945105
H         5.81798905105972   11.05159412190146    5.31018831766067
H        10.59684265528311   12.38067160141916    8.49919085370184
H        11.39387904485209   11.65224453583973    7.10339999349142
H         9.80318436361696   10.14553150773788    9.24105779191377
H        11.56471728066508   10.20772976502236    9.11647384172693
H        10.61620003802449    9.39258264223044    7.86871886324482
H         4.83185735220671   12.66893779742883    6.67388277301801
H         5.85186712400350   13.81154839212207    7.54862551816314
H         4.35753323364647   12.61731142045848    9.12559866918735
H         6.03807521953534   12.16403854178945    9.43827823229941
H         4.97552451415771   11.05976217487910    8.56426263757320
H         9.11918057964524    8.17836738387996    4.76802621419852
H         9.06454281234419    6.89255924172353    2.66692558351467
H         6.42281117270668    9.78992552040205    0.96918032984153
H         6.48400662392510   11.05995090949213    3.04083761642360
H         7.53226049625685    8.88553218868701   -0.93787139724667
H         6.07647091954911    7.98872209239946   -0.41226363971288
H         7.01693686950653    5.89781373766349   -1.37348668419877
H         8.46244070040192    6.76829731060981   -1.88736014363358
H         6.89568422847897    7.15807039062660   -2.61262351106113
H        10.41356182049505   16.39763661549152    8.62652038453063
H        10.24359197879705   18.07665623494818   10.37740257260600
H         7.04015244807145   15.90453367502127   12.20928053258276
H         7.17968444259926   14.21046089380311   10.40219805147274
H         9.10952930061803   19.74956576856756   11.54957818494922
H        10.32461761210171   18.86173429251021   12.51482016665210
H         9.14916308874815   21.01827752312420   13.51698748490876
H         7.83243720405124   19.86312247721005   13.86933224960340
H         9.23578167383998   21.10602992697241   15.95636883342710
H        10.15672937091416   19.75314072509934   16.68377554307792
H         7.77887865064221   20.03861434634747   17.52785303068750
H         7.20097696046544   19.52511208222116   15.92390135747794
H         6.26388614826844   17.54104838842213   16.87244088389599
H         6.86034780029491   17.98762292924945   18.49376959751768
H         8.52516431854851   15.95172223469779   18.09235177773640
H         6.85350680084704   15.64815175365921   18.65927996707227
H         9.02485514656303   15.35039197625976   15.88884556362793
H         7.72334884312931   16.28137241345718   15.10806155285987
H         8.52897067100056   14.08410176119231   13.94138231715332
H         7.62626533287455   13.25048582520981   15.24314447095992
H         5.81899715872584   12.44312757817905   13.92727719471469
H         6.81954725140757   12.93252949941852   12.53652096730172
H         5.15915979854510   13.56674184855630   12.70940205218108
Cl       11.89543621504964   14.45755366703187    7.45541885240830
O        11.65058820066221   22.17825281052924   12.83746828568625
O        11.04453944527188   11.66512260490765    0.97207094973163
O         9.82729009765311   10.19166447185388   -1.38520975379571
O        11.23526871935737   11.55527907753977   -3.59318862990916
O        12.32355556767809   14.51225702989136   -3.37173608400302
O        12.99656162978572   15.25943941795107   -0.56965422155691
N        10.60820662707156   15.39063647428153    5.03789905444460
N        11.32307982758342   16.41777554155079    4.93248401814783
C        11.35823319257322   17.33644699360304    5.96893357020049
C        10.23076179549989   18.06230864950899    6.39486410700881
C        10.37195415202453   18.93186921139679    7.46909713610919
C        11.58508650131945   19.10127813691139    8.12548185124160
C        12.70654819763580   18.44169475520806    7.62289894558491
C        12.61985509822222   17.58391259408580    6.54593113084116
C         8.94859611864679   18.09891260918108    5.60689104590690
C         8.85174872810801   19.42032139870971    4.84037569980714
C        13.84369451563203   16.91061964599685    5.99491036294135
C        14.26297301039461   17.55409967662457    4.67257118539279
C        11.67198640966651   19.93393292340977    9.33199248169676
C        10.94788092806724   21.12040956473941    9.45632240407543
C        10.97810350597965   21.84903002508171   10.62450619122423
C        11.72711307043797   21.41042016965847   11.71900682420909
C        12.47150357608519   20.24121136851300   11.59790052990627
C        12.44343459071952   19.52298627568918   10.41588311727324
C        12.33640845780584   21.75836589563156   14.00328864431926
C        12.09149468855376   22.80116680543227   15.08253115343644
C        10.69547580595483   14.47106816808365    3.99594566876401
C         9.83875408042115   13.36793584676329    3.99026768931210
C         9.92500600238942   12.42028021387556    2.99197711365154
C        10.87269043881128   12.55074857195628    1.97615211788512
C        11.73044672040377   13.66012081451110    1.97717750476994
C        11.64185395635765   14.60426867144385    2.96829094461290
C        10.22391409947934   10.51564307306102    0.93848815206956
C        10.58218617057484    9.70251099159717   -0.29915771682581
C        10.16695105506439    9.64818369537883   -2.63473817331906
C        11.45338493077065   10.21323760046838   -3.24490190827747
C        12.36380703328424   12.17808684525491   -4.16182042078320
C        12.03108443211194   13.64913887982516   -4.43577767298464
C        11.52756362658902   14.32279085683687   -2.21876563764224
C        11.79225907578254   15.48202878305603   -1.26587880821328
C        13.43085951551590   16.38929545195563    0.14124297575092
H         9.49745694923837   19.46213873539324    7.81762390932293
H        13.67085096639283   18.61035493682537    8.07934114355104
H         8.89449634791747   17.28040474663098    4.88762559767926
H         8.09575375208573   18.00659338501663    6.28359206102461
H         9.68764357682611   19.51779546642170    4.15001134093536
H         7.92596339768435   19.45290676168859    4.27106589996660
H         8.87086266627766   20.26776548875016    5.52171128842401
H        14.65818622641041   16.99375725014567    6.71596755688487
H        13.63903592511156   15.85007475982480    5.84161962904853
H        15.13315596862373   17.04517622806738    4.26466332835913
H        13.45213375958751   17.49606655171554    3.95105110759607
H        14.51288419019121   18.60224015234399    4.82484853498781
H        10.36723807296173   21.48155631610616    8.62067538625588
H        10.42163791489052   22.76835428639742   10.72112852315185
H        13.06684610592510   19.87424119001273   12.41900394107026
H        13.00573889876620   18.60310856005795   10.34806476664336
H        11.95843794803081   20.77868608911469   14.32609367836420
H        13.41268571712601   21.67707624782669   13.79895793028203
H        12.46999390383615   23.76736270610485   14.75969187600565
H        11.02632590693611   22.89499019857695   15.27552561818050
H        12.59440962444619   22.50797108639317   15.99940265372359
H         9.07728330942581   13.26272517602882    4.76258618600400
H         9.24766918438455   11.58341432702468    3.01205382057452
H        12.45210996267427   13.75482436591274    1.18107676625040
H        12.31221886966827   15.44913132609834    2.98788569175377
H        10.38187903439237    9.91012700696153    1.84008471217444
H         9.16717947358050   10.79822160274414    0.87460678580125
H        10.34306431742443    8.64152206030914   -0.12730444000871
H        11.65953705873684    9.79700025456522   -0.47961856482527
H        10.25667919728879    8.55349748225880   -2.56642827649202
H         9.33505100240219    9.90581780999602   -3.29402294056357
H        11.71262657970174    9.62158125769277   -4.13862639759826
H        12.29093016019887   10.13479648297460   -2.53472375625228
H        13.22708768265085   12.11968348406623   -3.48251276940959
H        12.63072195151896   11.67326690497730   -5.10392495626569
H        10.96511087260190   13.70827423817734   -4.70219623373437
H        12.63674051387891   14.01284783232161   -5.26868526516145
H        10.46471517329533   14.30834887530606   -2.49854799570296
H        11.76677404544679   13.37821148732417   -1.71767975437574
H        10.95954662369215   15.57426836266631   -0.55040708417666
H        11.86091867474800   16.40929783305555   -1.85218968025923
H        13.66814413095720   17.21824165374892   -0.53699316239632
H        12.66803076784796   16.72797059276861    0.85377615415687
H        14.32898801523065   16.09523538522172    0.68090116451780

