76
CSD_code = REPVOX | q = 1 | S = 0 | Stoichiometry = C39H32O2P2Rh(1+) | MND = 4
Rh        3.58249443722062    0.45364863802595    1.97625585126955
P         5.16547980331234   -1.05650516029701    2.57654077042732
P         2.23923928364230    2.25937399721627    1.53531757949303
O         4.99597346499177    1.70258414031276    2.65931935237043
O         1.46578537977112   -1.48427443567659    1.20043391471881
C         6.13218437459285   -0.04128527295927    3.81340701751133
C         5.94702622432674    1.39122117602429    3.38797203368049
C         2.27941515991814   -0.72413158798975    1.45456260937868
C         6.40219350179270   -1.26781165926816    1.26661263682555
C         7.62811809003965   -1.89490009619713    1.47304158752781
C         8.53389149169382   -1.98439128705200    0.43200506520593
C         8.22681945898607   -1.44558740014121   -0.80846538604166
C         7.01310208658242   -0.80875330255793   -1.01348517485099
C         6.10101053447308   -0.71988952772326    0.02214450601059
C         4.96336095897911   -2.65026896371990    3.41179122132491
C         5.40982952357467   -3.85396078174803    2.87959963053319
C         5.16047584980960   -5.03558816964593    3.55636007363044
C         4.45452389383456   -5.02338683568253    4.74789811580108
C         3.97589533385511   -3.82751767996311    5.26232292568163
C         4.22091429245304   -2.64561427429654    4.59189284338898
C         6.88642552472914    2.41519550215503    3.83332301076932
C         6.80772082049477    3.68878074531312    3.25400698740568
C         7.66054432842303    4.69446571390717    3.65714081268409
C         8.60226251659517    4.44992170431868    4.64596863849563
C         8.68508425867327    3.19473342471765    5.23197842933960
C         7.83808245198132    2.18026244813226    4.83263305525352
C         2.94956517824630    3.87638415590942    1.97410593244090
C         2.70414995705240    4.48725079297307    3.19813035500377
C         3.31826891231579    5.68994283421365    3.50296391795837
C         4.18026146024453    6.28292959781263    2.59544904460650
C         4.43889703250347    5.66849328210067    1.37913515822157
C         3.83348382061430    4.46437935686672    1.07152011575957
C         0.76489762871674    2.12833537162716    2.59521053127037
C        -0.46870540266416    2.69399692580443    2.30002376935753
C        -1.52287326891959    2.54116389442462    3.18463411894273
C        -1.35282933314892    1.83007774283754    4.36110027871414
C        -0.12528472662861    1.25691050695395    4.65692486002759
C         0.92739017283763    1.40180599334893    3.77444428542061
C         1.62113274223477    2.55199654770180   -0.14620273815740
C         1.72053673567438    1.53069024561193   -1.08504989699686
C         1.23778764754825    1.71620144631363   -2.36807961791170
C         0.65743963208589    2.92409092908130   -2.71954323837851
C         0.57160982357747    3.95120843429260   -1.79224158027812
C         1.05467845371432    3.77198976472367   -0.50918598609846
H         7.18336331770074   -0.33424238301985    3.85517343029946
H         5.68745834296370   -0.18755687273639    4.80348421168578
H         7.86760273210714   -2.31572901711924    2.44048668507667
H         9.48246390692790   -2.47568159376183    0.58705669690088
H         8.93782215435116   -1.52166402103136   -1.61660248548724
H         6.78000463602965   -0.38573015045657   -1.97872613714167
H         5.13890101509181   -0.22087117594418   -0.11840662207211
H         5.94421727154010   -3.86800531534050    1.94083010456053
H         5.51408933720288   -5.96977559210668    3.14764762459329
H         4.26400934018741   -5.94774788956654    5.27073819598378
H         3.40701080080753   -3.82148110846466    6.17959419773126
H         3.82569604246043   -1.70938754130238    4.97072293869936
H         6.07172354444147    3.86625120186074    2.48464486957552
H         7.59244702742545    5.67014571031928    3.20180818668280
H         9.27009524852956    5.23596194353454    4.96294738824721
H         9.41362882086207    3.00934628452121    6.00605219611229
H         7.90517584050535    1.21651902700543    5.31283994397875
H         2.02626239739785    4.02842914207470    3.90455378849933
H         3.11939013451028    6.16787646648833    4.45034714213496
H         4.65032354185854    7.22459431727671    2.83479199170370
H         5.11367433852821    6.12817094730842    0.67208943812058
H         4.03426033803004    3.97396982421187    0.12720513592601
H        -0.61072786595212    3.23928633061685    1.37881108323271
H        -2.48257383231506    2.97718532596178    2.95252130650970
H        -2.17912585932779    1.71478519994859    5.04548882747038
H         0.00349963704489    0.69545985931070    5.57015882178153
H         1.89981640823682    0.94716826946466    3.98632485540367
H         2.18711329374784    0.59296951107763   -0.80087455227475
H         1.31543577333886    0.92125292389591   -3.09414941218145
H         0.27910422200828    3.06956272114484   -3.71964064501005
H         0.12968288620945    4.89573117866481   -2.07162760789914
H         1.00819569695886    4.58093759809356    0.20749098318866

