82
CSD_code = REPWAM | q = 0 | S = 0 | Stoichiometry = C38H37Cl2NOP2Ru | MND = 6
C         1.28462180902816    4.45544448792315    1.12575413756862
C         1.92198411484229    3.54854896630198    0.27063693324684
C         2.07556417671855    3.87424384625283   -1.06866634305382
H         2.54128472284224    3.18786189459336   -1.75837820184904
C         1.61853546417598    5.09149015914616   -1.54816738369239
H         1.73402734183428    5.32461316107629   -2.59617614879261
C         1.02459386716076    6.00308100995763   -0.69513951072363
H         0.67664444250869    6.95356623472675   -1.07067898522674
C         0.85309531506549    5.68174406992972    0.63992462472722
H         0.35598615453491    6.37514536154009    1.30217306008846
C         2.59382495862317    1.23327257174300   -0.07785740838173
H         1.63171043717051    1.03722204602641   -0.55584446796269
H         2.93411146577259    0.35805775563148    0.48238167303692
H         3.34533326323957    1.43471365112742   -0.85122161697222
C         3.78828248777505    2.68249742383280    1.37911253382440
H         4.48186384849338    2.87733354756282    0.55157019863397
H         4.16207783485475    1.85883552584843    1.98837576855750
H         3.72707982150260    3.57392315884340    2.00271381295870
C         2.08731469550422    4.87674454525705    3.81894805723383
C         3.19313443498270    4.27890201787679    4.41423698686630
H         3.34618228532018    3.21304603053703    4.30649192174906
C         4.08555216098116    5.04302830180021    5.14601305841895
H         4.93838206881746    4.57057665550653    5.61079062641617
C         3.88501730965679    6.40610342755889    5.28286430324836
H         4.57980767282992    7.00270477154374    5.85592615745332
C         2.78903534202086    7.00663047797467    4.68353239780593
H         2.63100422711796    8.07050777561913    4.78755336380556
C         1.89282240705281    6.24838251406356    3.95379863457735
H         1.03360914435381    6.72102209826418    3.50000709446183
C        -0.66751078877207    4.62083441622717    3.19372481141834
C        -1.65788312506960    4.69049885385963    2.21548116401737
H        -1.44491394731036    4.35476662415055    1.21032157751034
C        -2.91280601083369    5.17952876151426    2.52934647831856
H        -3.67201990802437    5.23513568636165    1.76273392821169
C        -3.19848859372361    5.58736017582686    3.82204145961287
H        -4.18142886152607    5.96304546470851    4.06600668988594
C        -2.22152235505929    5.51089518745380    4.80066736942470
H        -2.43905466887834    5.82482727386201    5.81109957842519
C        -0.96280488820796    5.02934998904374    4.49174503744893
H        -0.20058271777344    4.97594025601261    5.25555420660750
C        -0.36942480149030    2.03058281779630    5.65122537287549
C         0.85359117951934    2.55112663014661    6.06850258367416
H         1.74972805919284    2.27688422637479    5.53083860889203
C         0.92135755761317    3.39396726925857    7.16255561601140
H         1.87582989601290    3.79274169870944    7.47529016068780
C        -0.23503005808692    3.72928912526298    7.84916460568941
H        -0.18683487960275    4.39045695856034    8.70246182426819
C        -1.45349510581730    3.21575216671452    7.43736987393285
H        -2.35668144788307    3.47458108730410    7.97131338602655
C        -1.52593925541304    2.36995298734050    6.34382307679021
H        -2.48342672466321    1.98011795068863    6.03133481122454
C        -2.14485790223990    0.63754757836784    3.97998160335198
C        -2.83765263929015    1.55296986125577    3.19535230358112
H        -2.29199654078060    2.34892014195814    2.71196083663141
C        -4.20582681602293    1.44362820931317    3.03105479995615
H        -4.73117946169374    2.15904039665551    2.41557441603585
C        -4.89678628466261    0.41717837086935    3.65290903895253
H        -5.96528529565025    0.32423109278863    3.52243002363030
C        -4.21514137244239   -0.48971513064896    4.44835774955014
H        -4.75324281649991   -1.28544941630876    4.94369271578765
C        -2.84657200332627   -0.38093143657747    4.61866613387327
H        -2.32669198923376   -1.08468480627240    5.25309953632129
C         0.18641907204088   -0.66795980330127    4.93387615348295
C         0.92224489233214   -0.74551642224432    6.10983994785321
H         1.15460955612431    0.15143469054376    6.66433596747988
C         1.36857705770820   -1.97287426945100    6.56783851522613
H         1.94453081787435   -2.02396798541057    7.48053160258685
C         1.08864991679210   -3.12909469105262    5.86025950252903
H         1.44468214915335   -4.08413634838108    6.21872006316997
C         0.35414316629687   -3.05787531762750    4.68739583546447
H         0.13344337378191   -3.95784673423610    4.13070305731861
C        -0.09323500235074   -1.83532661938171    4.22497903253476
H        -0.66462964040933   -1.77413356482435    3.30816747536247
N         2.45605222084049    2.34542212763675    0.85949234589588
O         0.73363182768355   -0.58044872166903    1.67748704422330
P         0.94141357155516    3.85464745851021    2.82145010890447
P        -0.35461351183499    0.91628604202747    4.20625116673383
Cl        2.81593370675411    0.82383335667297    3.78177831973308
Cl       -0.64585104603181    1.80903491978597    0.72438075006410
Ru        1.00285846117219    1.63015085904676    2.48425996615164
H         0.03823419189413   -0.24921022033691    1.06999746061189
H         1.38349651158999   -1.07313271277433    1.16599902797847

