54
CSD_code = REPYIW | q = 0 | S = 0 | Stoichiometry = C22H26Cl2N2PtS | MND = 4
Pt        5.80200676842993   10.41545930668711   11.69170708565499
C         4.54548814628020    8.84687059036594   11.60716465014597
C         3.21785637935101    7.33874193702469   12.60601497706065
H         2.65812948807534    6.89101258839673   13.40097135157965
C         3.37920113856655    6.97173798275075   11.31577087458222
H         3.00242781399076    6.12202516110706   10.78584256155705
C         4.59939783301212    7.80087475339736    9.32843156418795
H         5.31592699467506    8.61635392568382    9.15785804946595
C         5.30889161979340    6.47618276992999    9.15912342810245
C         4.78716346547153    5.40994912031273    8.44203337246799
H         3.84068214479360    5.50368870961748    7.93237846567899
C         5.48233639830386    4.21379287976744    8.36302230003116
H         5.06847740032228    3.39228847471008    7.79661455470120
C         6.69833364184741    4.06838720303169    9.00547173897367
H         7.23637378992240    3.13423452807424    8.94268044998503
C         7.22649781531881    5.12945730235713    9.72365555423799
H         8.17973056472474    5.02561978963258   10.22041813497846
C         6.53660385606139    6.32393372996027    9.79683319671793
H         6.94944760005766    7.16136664705769   10.34178112686334
C         3.39696043010026    8.03433684244223    8.42062390067427
H         2.58205390871883    7.34525399896997    8.63429930889843
H         3.69843301985167    7.92346781097702    7.38346000896343
H         3.04130545220149    9.05157494525972    8.56464159338579
C         3.99234485601989    9.25430941264693   13.98757654890637
H         3.98363092747466    8.57762132642683   14.84617013899066
C         2.85024881423550   10.23494417554193   14.07632985707537
C         2.66536816157978   11.17861894203616   13.07224662801249
H         3.35019959007734   11.21551007429511   12.22856041306743
C         1.62127909869591   12.08084569131785   13.15238557892627
H         1.48710790527193   12.81301606610383   12.37137068221048
C         0.75548646505410   12.04734497940523   14.23343290787183
H        -0.05955070571489   12.75236765576992   14.29544633752791
C         0.93897027456345   11.11187293065682   15.23708582841487
H         0.26927145146244   11.08498770145249   16.08339895302985
C         1.98391938299788   10.20763195644272   15.16059656941809
H         2.12760424861252    9.48068908763531   15.94770973269640
C         6.90933762477687    9.10893574087206   14.60839367917145
C         7.23919490408767    8.10043719366356   13.52055863272649
H         7.47326262834015    8.62464339870234   12.58839341004786
H         6.41611719321754    7.40848348008014   13.34671439199860
H         8.11296173311528    7.51959184873743   13.81234072673726
C         8.07224526928043   10.06978110166688   14.82996713253541
H         7.85957296840322   10.74503391672582   15.65581925447333
H         8.24148471347428   10.67013250046343   13.93587668157520
H         8.98089347684517    9.51568343059195   15.05500111550900
C         6.50368805322177    8.43307544513731   15.91000886354569
H         7.38008166911324    7.97348745970882   16.36322156471876
H         5.76735668698771    7.64830381289120   15.74597800452040
H         6.09967963687763    9.15912907189120   16.61236624572605
Cl        7.26736527712613   12.13882006959921   12.00849986228395
Cl        6.00432964221908   10.74631721650602    9.45373594381317
N         4.18889931699854    7.90228073730866   10.72187181784346
N         3.94423589282756    8.48929917444951   12.77360121111070
S         5.54618717289287   10.26009340376784   14.05334303661944

