46
CSD_code = REQCAR | q = 0 | S = 0 | Stoichiometry = C21H16N4O4W | MND = 10
W         2.48641804790637   10.27924353965778    2.72833903524428
C         0.62590787293616   10.05060322755338    3.27267858839924
C         1.57598220146844    9.94448782605160    1.02694984645043
C         1.41743116147803   12.28091822313852    3.50385418234278
C         2.66802345084526   12.46096112334410    2.84993285650581
C         2.73388304475178   12.21954287899287    1.42618189942817
C         1.70359251555853   12.86049622070257    0.49614999717113
C         1.29502111190396   14.24337055675444    1.05685834507307
C         0.21261118270166   14.14245219891151    2.19143698137982
C         0.11887257381352   12.73503905165546    2.83847047294524
C         1.40634692367479   12.48845627604556    5.00298591121167
C         4.08925255426876   12.30755023384431    0.82609089995182
C         6.39434901339907   12.26243617731712    1.24010011813092
C         2.48753530201572   14.91500233506290    1.55963413549857
C         0.79269414226597   15.08118386732327   -0.02438573164009
C         0.46649840456812   15.14623773335754    3.21195969048138
C        -1.10512556167862   14.43510556770043    1.63853978221054
C         4.63923895561190    9.34341101647331    2.62420176185431
C         3.71211355824162    8.27805203486625    2.70491943829524
C         3.05117471456510    8.37004030695898    3.96150140428108
C         3.56583246286055    9.49987266613791    4.64344881472724
C         4.53909115291117   10.10201316677525    3.81344298281331
O        -0.46698482499457    9.90182528769842    3.60785893992864
O         1.01809831894161    9.76771306835020    0.03661654315872
O         4.31913748350239   12.53605362265810   -0.33775421388896
O         5.06971946257383   12.11065619660596    1.73269206963774
N         3.42453589867310   15.44752418947191    1.93553593536064
N         0.41794313687601   15.73650094026346   -0.87964429973585
N         0.64801902735061   15.92254072472205    4.02884206990637
N        -2.15194031607228   14.62947835628769    1.22957751697492
H         3.53220256483959   12.83766738884262    3.39620052421350
H         2.19960968461668   13.00995988813495   -0.47039795297126
H         0.81067667742667   12.26469013451155    0.30299144154863
H        -0.22801042042137   12.04176851570486    2.06867773873419
H        -0.66643767698728   12.77581570646814    3.59915785338431
H         2.36084547898852   12.21056730276768    5.44716192269057
H         1.21783044757831   13.53770433389593    5.24028732934419
H         0.61921462553868   11.89651042241288    5.46907347356560
H         7.05925035614109   11.93783965596736    2.03715477259904
H         6.53914295745160   11.65713215107443    0.34296543148510
H         6.58123414733854   13.30850200899522    0.99054701547432
H         5.38192770883542    9.46522600665523    1.84992984336551
H         3.63500602137059    7.44776812320316    2.01330950469096
H         2.38653398126620    7.62353016157894    4.37883495235507
H         3.36098069093763    9.75361004953752    5.67444597793679
H         5.20961978216574   10.89733953557398    4.10774419749629

