42
CSD_code = REQDEW | q = 1 | S = 0 | Stoichiometry = C13H20BN6OPd(1+) | MND = 6
Pd       -1.60875542684467    4.53790600158920    2.81155736660220
C        -2.44170377200603    5.59277797853738    4.38855692297293
C        -2.50210794350635    7.07316446805121    4.04123430747505
C        -1.31095316198800    7.38316863593445    3.13329136583466
C        -1.35986408318371    6.40914597523178    1.96564235033790
B        -2.56787483040382    1.83690818988508    1.48188660344853
N        -1.27869642945240    2.28354009720326    0.77803360101492
N        -0.62592869409462    3.39799740717988    1.13805617151074
C         0.43583603924724    3.51357576396744    0.34472329564006
C         0.47759468182287    2.44618713930074   -0.54772646800865
C        -0.63411614402277    1.69019930909229   -0.23549683271884
N        -2.25535401036755    1.55967670487896    2.95960213300585
N        -1.83504805287175    2.53241120011938    3.78053942338778
C        -1.66395187558582    1.99641230673090    4.98579409940034
C        -1.97524811782016    0.63989095995592    4.94570018802934
C        -2.34807595844657    0.40745983402454    3.63700215999722
N        -3.56317508125157    3.02524730560614    1.43805501108949
N        -3.33391830006299    4.23691565492912    1.95508345498067
C        -4.41273214715608    4.99034396886256    1.75934576273125
C        -5.37375507918569    4.24360681903961    1.08911334699760
C        -4.79067194946997    3.00474309274049    0.90722364629304
O         0.43674451968569    4.68266345790105    3.76796671760630
H        -3.41439385847741    5.19659328418327    4.69955001148811
H        -1.70131698130168    5.42170335617752    5.18147772810736
H        -3.43184365905852    7.31807839403326    3.52384744461083
H        -2.46595240555952    7.67500504474071    4.95308622582447
H        -1.34674721115875    8.41440955908717    2.77017747189723
H        -0.38214546093304    7.25971108483127    3.69809092569322
H        -2.19277704058504    6.64746275464558    1.29561528835257
H        -0.42625451858036    6.41761077867367    1.38962643614716
H        -3.03200481008080    0.89026921649343    0.95893921304125
H         1.11521362232181    4.34195998247327    0.43227794820331
H         1.20714021374960    2.25817670289423   -1.30652302373898
H        -0.99521581607645    0.78104998120428   -0.66947575012414
H        -1.34040393706483    2.59190698558583    5.82005635689782
H        -1.93701221268356   -0.06246435604316    5.75109074463413
H        -2.66755389533468   -0.49558005184351    3.15970294753758
H        -4.47054196311064    6.00818118500014    2.09378736624254
H        -6.34822245094004    4.56103831977955    0.78390234580177
H        -5.17792755096613    2.12481860481011    0.43655928112955
H         0.68428182603830    3.88285596474721    4.24978925135605
H         1.17363392676619    4.90147093776493    3.18403715926912

