70
CSD_code = REQGIF | q = 1 | S = 0 | Stoichiometry = C30H34O3PPdS(1+) | MND = 4
Pd        4.52976900217873    4.12003931325188    2.98418261423459
S         6.66620499027676    5.72522044893806    4.95645651337196
P         2.53893859663609    2.49608206977877    4.85758644646990
C         7.63666104610321    3.82965746074438   -0.11607023593091
H         7.40835238212389    4.28012646113493   -1.07948071903963
H         8.15066652855174    2.88918753950613   -0.29778294023695
H         8.28791898453503    4.49590023549764    0.44386831200610
C         6.35461450537288    3.58313769657729    0.64686491772537
O         6.22192014186879    4.20975856057405    1.73918308433539
C         5.44669536805117    2.69209109816532    0.07495700917595
H         5.73360792488633    2.23462669052875   -0.85838362558524
C         4.19237742032147    2.35316700096735    0.58732892841468
O         3.66230807551520    2.78919155852149    1.64789084404914
C         3.37341129690698    1.36405523963405   -0.20988759866588
H         3.95248725460156    0.46380053752253   -0.39841305339340
H         3.10474721753302    1.80109820799139   -1.16914795960326
H         2.46805610268528    1.11081464237693    0.33537930904210
C         4.98579067410799    5.55001235436120    4.41628713568732
H         4.47035243883639    6.49897324054128    4.26237469893641
C         4.29855204183484    4.48611666017864    5.13580223872961
O         4.80925108058254    3.77795719569146    6.00929100212532
C         3.06864510889614    4.14172421592561    4.41523598197374
H         2.27595828761365    4.88136639019209    4.29248411273646
C         1.47527752490956    1.84879994711279    3.54447995006501
C         0.92332309768240    2.68636358703969    2.58173967972941
H         1.15682302925977    3.74186240271026    2.57525688448395
C         0.09151275522569    2.15700259583470    1.61066962198603
H        -0.33449601181641    2.80405825432300    0.85901590986552
C        -0.19012818905800    0.79989634941479    1.59714845274706
H        -0.83664243663813    0.39136555928780    0.83556572014621
C         0.36252857255176   -0.03561177462622    2.55577948713194
H         0.14707842752682   -1.09307250244086    2.54160822193464
C         1.19401054260936    0.48551677753335    3.53022202481140
H         1.63081089847113   -0.16198569067117    4.27819771910757
C         1.55891404072707    2.53667672151091    6.37961342035349
C         0.18448784239031    2.32452884358681    6.35450290116860
H        -0.31011028346363    2.08708280454385    5.42301337121059
C        -0.54124351199385    2.40936591096981    7.53003924189612
H        -1.60692310302086    2.23945135988777    7.51447744394283
C         0.09777670740731    2.71027667537491    8.72203418539935
H        -0.47256139330489    2.77349350717820    9.63597786736754
C         1.46689821633651    2.93176637520807    8.74393321987908
H         1.96138485376828    3.16792327294953    9.67377892464927
C         2.20191853683440    2.84943301775391    7.57607443683023
H         3.26942510473918    3.01883615031032    7.57396671025348
C         3.88855279882508    1.30377673946880    5.08258013383629
C         3.69715618756408    0.30139334149126    6.03182080239583
H         2.79892419866448    0.29094316027634    6.63391521637888
C         4.66146967556118   -0.67253422066204    6.21893391557523
H         4.50779882301737   -1.44213307243534    6.95987761169137
C         5.82031589474908   -0.65559377878258    5.46159279565395
H         6.57504200049783   -1.41218323999221    5.61057878057158
C         6.01217514274641    0.33863062430988    4.51514859391455
H         6.91701183511919    0.35454465354867    3.92634604938539
C         5.05212002998548    1.31529776268150    4.31799012587638
H         5.23290730506790    2.09745940396700    3.56681143058175
C         6.58593298147899    7.23600082724010    6.00807684705254
H         7.61762712984818    7.51019227439918    6.22248272295694
H         6.10635016638684    8.02806264266519    5.43533134192049
C         5.82785825097591    6.92766476622477    7.28304833297498
H         6.30874670710151    6.11922068501275    7.82729357121949
H         4.80467858458136    6.62867720025579    7.06750910425984
H         5.80276893997016    7.80877576394213    7.91965263821950
C         7.47554038224797    6.42297829916058    3.45826145147288
H         8.35153563024670    6.95792416745490    3.82119478853025
H         7.78901538398235    5.54068885944135    2.89953050801793
C         6.59195843628629    7.29085257429044    2.58748517341878
H         7.18519536587382    7.66064482369186    1.75435974134058
H         6.19834375713195    8.15143640491238    3.12370588507270
H         5.76672270093341    6.70364437406842    2.17207002621129

