99
CSD_code = REQROU | q = 1 | S = 0 | Stoichiometry = C50H44NOP2Ru(1+) | MND = 8
Ru        7.28383625571481    5.23604485685455    3.64932603930751
C         9.15182123739441    3.94738927234175    3.65186700139866
C         9.55557893769288    5.29289448816972    3.55486963274849
C         9.02554133675178    5.83162391902202    2.34407668892122
C         8.31873428300658    4.79464428122348    1.68951804228636
C         8.36605982742405    3.63721270022814    2.50655228363726
N         6.38550056546857    4.11125609746177    4.89849435785403
C         5.91125710144914    3.30125022981186    5.58255123829455
C         5.26625757489892    2.40448463414770    6.43818562885475
C         4.99047797538845    2.77992749776702    7.75777110246556
C         4.33556720291686    1.91541585872563    8.60739683162036
C         3.94168661105736    0.64990045283712    8.16082788695347
C         4.22108917680342    0.27827580259697    6.83604560308554
C         4.87149975110514    1.13582652120098    5.98690256018499
O         3.30385597546766   -0.26681905807873    8.89926097384810
C         2.98747105521498    0.00515394078895   10.25751213044712
C         2.28891266046355   -1.22088299129990   10.82053419974080
P         5.26576424149202    5.55043858106944    2.56176536809382
P         7.18254377123322    7.09246084554764    5.04033159388463
C         4.60500443302934    4.33803614656425    0.08626993817694
C         4.42004784387903    3.23914752459354   -0.73577433436786
C         4.60989002120273    1.95792706267042   -0.24739951710744
C         4.99969142358165    1.77343941845255    1.06978872216534
C         5.19419894483377    2.86704454734200    1.89194242847653
C         4.98449295779085    4.15963714746908    1.41202342323253
C         6.13554785947211    7.76803679768282    1.13030829007862
C         5.98438667726529    8.85633065215710    0.28909576453369
C         4.72738351218275    9.19637670211031   -0.18003010967107
C         3.62214955032346    8.44273068285730    0.18717442411092
C         3.76906022845815    7.35195556904069    1.02272268068750
C         5.03300120200661    7.01183221740553    1.50542706012585
C         3.27181070364150    6.78094050545439    4.04759464817293
C         2.15984458320338    6.82800176278903    4.86583625108389
C         1.52024804179075    5.65512915605477    5.23417960136813
C         1.99276051657821    4.43754293063820    4.77399148510226
C         3.09771620162690    4.38636314474718    3.94222237074524
C         3.74418292002651    5.56036213640380    3.56874376476864
C         4.92387685781701    6.50711399178332    6.59343266796811
C         4.00160953545020    6.76342138122181    7.59394608784273
C         4.01084111181934    7.98098817560201    8.25127549174355
C         4.94952896294864    8.94349963231863    7.91087642332229
C         5.87838798690205    8.68876061556861    6.92079182426916
C         5.86355926059013    7.46872956749539    6.24666867505002
C         8.63450646808151    9.00523680130167    3.63112769626900
C         8.78300097379377   10.15221877495303    2.87367565153275
C         7.68626710803402   10.95811749327639    2.61099608149475
C         6.43988293794044   10.61417440751920    3.10811266958809
C         6.28728176882441    9.46898583928545    3.86774771592699
C         7.38591619840388    8.66100887601180    4.14567846006069
C         8.82116099098819    5.82892161572357    6.84390910929211
C         9.79948392997101    5.72125037683174    7.81383569733928
C        10.52117230220739    6.84215141350035    8.19325104092522
C        10.25164792517049    8.06862099396836    7.60906690743895
C         9.26766618791141    8.18323111174530    6.64225414015837
C         8.55617316878805    7.05725383445441    6.24327076522722
H         9.48067366747111    3.24067888243678    4.40222396996008
H        10.25952942267876    5.78722673794633    4.21119102086596
H         9.32856889800861    6.76795800624915    1.89464342441318
H         7.90186417361281    4.84290188645023    0.69126169646276
H         8.04827681241233    2.64784432258239    2.20913384663989
H         5.29386617820935    3.75585693390653    8.10718930160486
H         4.13589341742695    2.22941399017088    9.61921931713567
H         3.91080596500908   -0.70098031306708    6.50885030661012
H         5.08293301336644    0.83808452950753    4.97098903570904
H         3.90764126839923    0.21238283393768   10.81909977012870
H         2.32892977087391    0.88166066388828   10.31720654673647
H         2.02916132898324   -1.05036745085763   11.86093420933406
H         2.94269866993532   -2.08589186787769   10.75424557468980
H         1.38344741697240   -1.42646857022031   10.25655059231259
H         4.45971473924996    5.33195981652463   -0.31037308449199
H         4.12793895434488    3.38730154260926   -1.76438096019144
H         4.46364493918476    1.10513488062186   -0.89219604476027
H         5.15873837414584    0.77522099459865    1.45102785352635
H         5.52516890638794    2.72608301522775    2.91424413175060
H         7.11246450198130    7.50230231495190    1.51010641054186
H         6.84726566797208    9.43827865273235    0.00246686655175
H         4.60577878884433   10.04624395124478   -0.83401755626969
H         2.64259126001649    8.70474821355787   -0.18349648299904
H         2.90819485504480    6.76107448254658    1.30403643516405
H         3.77768003763584    7.69272751468083    3.76242767997533
H         1.79419988461407    7.77951066608665    5.22137264286801
H         0.65228284421532    5.69117193382739    5.87469515661716
H         1.49576760627018    3.52146065837615    5.05681653560526
H         3.44229833093938    3.43277903485881    3.57099953208543
H         4.90928791194376    5.56362181941827    6.06864072103461
H         3.27394589138035    6.00913736478781    7.85463183721104
H         3.29136962441995    8.18195861176999    9.03033660356049
H         4.96079512102672    9.89277487769235    8.42484445939109
H         6.61438413732981    9.43777867438296    6.66607473540638
H         9.49087156964166    8.37738001107835    3.83943425175189
H         9.75574393930976   10.41989321445446    2.48812345718239
H         7.80452723121333   11.85378950545476    2.02055186401910
H         5.58401328340744   11.23918618056479    2.90252146935890
H         5.31665776325882    9.20381614933500    4.26235803440088
H         8.25111363555083    4.95730518659325    6.53856300083743
H        10.00235957681512    4.76536492645941    8.27346596219706
H        11.29117534013488    6.76000136490557    8.94487863581062
H        10.80932936789978    8.94327020260979    7.90828912815322
H         9.06526907497105    9.14590671555538    6.19539495037082

