78
CSD_code = REQSIP | q = 0 | S = 0 | Stoichiometry = C25H39B9NP2RhS | MND = 8
Rh        3.45926337213637   14.04415293811463    8.97547030407333
P         5.68640475387872   14.31303100015574    9.58746100323278
P         3.40624728842502   15.98434183716948    7.58435339327200
S         4.50871095624651   12.76342623798682    6.98584530900441
N         2.36117695618919   13.83793702188806    5.92473984619759
C         1.96722315487427   12.29182192011545    9.05033439385515
C         1.24314213232591   13.64738190437535    8.90808614308346
B         3.05084500848001   12.31211746339401   10.33279620429588
B         1.48594652894432   11.41090233253631   10.40268631353263
B         0.30649942003251   12.28786039153631    9.43944607368502
B         1.66474278085765   14.73893836351377   10.12599944503640
B         2.81240068682641   13.88143545029524   11.16618177865818
B         1.97818367126779   12.42469568526242   11.76576093427432
B         0.28362912211180   12.44323011789892   11.21043139082300
B         0.09954250929202   13.86462897843265   10.15762173077384
B         1.08853217419399   13.96851317046040   11.62521316567083
C         3.24078455035079   12.90879453504232    5.88131604273242
C         6.75123906444805   15.28347825422680    8.45731213713425
C         7.03681870939048   16.62215094892481    8.70696877822846
C         7.81766630204515   17.35135961977930    7.82767022280385
C         8.32811984136136   16.75417658517753    6.68751538458943
C         8.05470170678298   15.41998153077510    6.43382449981307
C         7.27034506975064   14.69131850730412    7.30952631593242
C         6.22908790419853   15.00342428605522   11.20825440667230
C         6.64986752360152   12.74708929864065    9.66965952639856
C         4.00231847237272   17.49140809724474    8.46442243709560
C         4.01793158532500   17.50367906087342    9.85349371929973
C         4.42299882977272   18.62895461503614   10.55037419177916
C         4.82820530902756   19.76105667592758    9.86433143565106
C         4.81203485070079   19.76136265210042    8.47987290946321
C         4.39577448147816   18.63943115825075    7.78585988288168
C         4.38687575928211   16.14464345192351    6.02807916880715
C         1.78701255629387   16.70776082531992    7.07590975542796
C         1.28081644974442   13.82988483192382    5.05507044875932
C         1.05858661975595   14.90619132942714    4.19459696244220
C        -0.06655091883718   14.93597902730262    3.39489879092457
C        -0.99026123990381   13.90427894267213    3.44031883417900
C        -0.77375777177180   12.83004679312953    4.28690143959613
C         0.35204591625859   12.78743109397866    5.08525342188647
H         2.20462552664680   11.75582939312524    8.13427145443471
H         0.95954781361333   13.96636031212573    7.90821112439441
H         3.98629573780764   11.58979127318509   10.31890983083683
H         1.54566871378753   10.23737504173152   10.34980731076492
H        -0.43224859741764   11.80690501389667    8.66211633412727
H         1.53398417957907   15.90177014869140    9.95672159811001
H         3.59684687716203   14.41172656868540   11.87060029272557
H         2.30398132193224   11.96519158210150   12.80032586370971
H        -0.60150944739213   12.00521888906291   11.84949879275199
H        -0.86079509412177   14.50187108058396    9.91883046936426
H         0.77320361767472   14.62186546478715   12.55295216263458
H         3.24909457814226   12.15337017116645    5.08673074518557
H         6.64963507435029   17.10475451095975    9.59005108389193
H         8.02560798706753   18.39091033441247    8.03548751843269
H         8.93627783373178   17.32457323755849    6.00093433467257
H         8.45116646886888   14.94593098402376    5.54789017921870
H         7.04810534671703   13.65825683425966    7.09385704876518
H         5.76181598552356   15.96170595887483   11.41108771176019
H         7.31195238502285   15.11820407808374   11.20542642662481
H         5.94072653065706   14.30448482345499   11.98936652946785
H         6.44438577359830   12.13135315410091    8.79848850425598
H         6.33939355190131   12.20274843580310   10.55869764830304
H         7.71541883101637   12.96549356287024    9.72583488728579
H         3.70954250154576   16.61698612890471   10.38895651087089
H         4.42491172781763   18.62175614595628   11.63113581250547
H         5.15272973180128   20.63869702929572   10.40380165093056
H         5.12251275353298   20.64272542557477    7.93684620909801
H         4.38653913398446   18.66849801403509    6.70677451527115
H         5.39796612573704   16.46651155678261    6.26654698291113
H         3.91981044987147   16.85767505086178    5.35179911038334
H         4.44347748330523   15.18158886011858    5.53190853495140
H         1.19370725451295   16.91057502973316    7.96438671597245
H         1.24587788308781   16.01996578226057    6.43491628752904
H         1.95915365192418   17.64408688696875    6.54643972499939
H         1.79036668169618   15.69892383846790    4.14325436543785
H        -0.22239896623581   15.77086556940497    2.72660847406995
H        -1.87039895468766   13.93505374585269    2.81578512677162
H        -1.48467000402759   12.01712829784332    4.32376310882329
H         0.52123946253618   11.94927485018084    5.74782087585225

