44
CSD_code = REQTEM | q = 1 | S = 0 | Stoichiometry = C17H21N4OZn(1+) | MND = 5
Zn       -0.31365535345640   20.04035934421046    8.99888533191785
O        -2.09066459931945   20.40244497583935    8.69069643342974
N         0.31111122642745   20.59440236594467    7.24073310397644
N         1.83651074747470   19.64423937679417    9.32845592967679
N        -0.37984944076337   17.92816016716065    9.24482274241203
N         0.03709798349725   21.16362358645208   10.66867205282129
C        -2.60468807664440   20.94859106149214    7.62988968663014
C        -3.99522957011930   21.20594145992874    7.61547692450700
C        -4.61406693098325   21.77424601203504    6.53445103562958
C        -3.87965504147037   22.12426973811405    5.39498322047375
C        -2.53306615395709   21.89431608799537    5.37025736056697
C        -1.85600859194700   21.30892002842011    6.46574816498859
C        -0.46043649370378   21.11406476111578    6.34106537699281
C         1.71709082217922   20.41326979631399    6.97397972843550
C         2.48440141529093   20.45995554130580    8.29845556108363
C         2.04445871639257   18.21003274221810    9.14423161936325
C         0.89172241313336   17.42999266600804    9.78099095160332
C         2.21215598579331   20.09571050093450   10.66423465636522
C         1.25874373155303   21.13425307464644   11.19724355552454
C         1.62725865574024   21.98382690195852   12.23268102376309
C         0.69619250261029   22.87936239809957   12.73098142132122
C        -0.57684033563582   22.89629752579394   12.17829874346503
C        -0.86177523909991   22.02293808311297   11.14561812045215
H        -0.54566940051928   17.52302318648520    8.32519188478023
H        -1.15577122667450   17.62388479456683    9.82698689780997
H        -4.55516503922836   20.93268054084725    8.49690547331253
H        -5.67764195768560   21.95726939497953    6.55933854832081
H        -4.37677996847899   22.56912328583231    4.54799749538011
H        -1.95497039127590   22.15777628698435    4.49594671511691
H        -0.01299593774897   21.43441109351412    5.39555001629883
H         2.10747309072907   21.18733852194080    6.30356847864182
H         1.86447740571349   19.44478214520964    6.48072246952917
H         3.52464969949001   20.14971111811644    8.13907010032910
H         2.47743741866165   21.49305258497440    8.65159512876502
H         3.00140608909402   17.87886253056066    9.56551880340276
H         2.05281687054694   18.00038869348692    8.07447302525198
H         1.03108632766204   16.36083774430989    9.58883188272089
H         0.88556848672861   17.58288656611008   10.86213422296859
H         3.23758927143681   20.48558741519723   10.68371183744177
H         2.17922161771701   19.24791451336486   11.35466843311778
H         2.62536133494217   21.93836969630431   12.63956097932423
H         0.95827282747414   23.54894068499361   13.53519530380142
H        -1.33207922731398   23.57471649788557   12.53915281893454
H        -1.83329566426296   21.99112450844166   10.67452673935160

