44
CSD_code = RERDEA | q = 0 | S = 0 | Stoichiometry = C21H16BrMnNO3P | MND = 6
C         1.27440474081446    4.65221770114353   15.44295754730635
O         0.23796761085339    5.09735219029485   15.22911682131431
C         3.08979625736308    3.45014733823396   14.07092323846533
O         3.21355061044872    3.08777417616424   12.98552249286877
C         3.54874484302899    5.62981518910972   15.22885977423012
O         3.92522794191300    6.65000194481991   14.85287149350266
N         2.27949523146009    2.05536483069904   16.35766551575208
C         1.08388012643831    1.58020022371626   16.00003275533408
H         0.47709849013754    2.21138256560124   15.36344999148534
C         0.60940080590736    0.34571579897440   16.39825851774538
H        -0.36593898583182    0.01789005386955   16.07770157162695
C         1.40768394056447   -0.44786091695990   17.20807335037774
H         1.07285115638773   -1.41812926818678   17.54111003692799
C         2.64659787178200    0.03740575885778   17.57825889160663
H         3.30470824099604   -0.54077041250896   18.20872553698832
C         3.05503077933389    1.29417453898468   17.14076472139910
C         4.38574558663538    1.83493425418511   17.55847428836067
H         5.13660419076151    1.04299748569185   17.64317680217725
H         4.28446475093106    2.32973176498794   18.53474117895673
C         5.83864638111902    2.22118628576268   15.11958247261250
C         5.47269851523848    0.93398556881662   14.73845195944968
H         4.65877587656857    0.42484223103285   15.23966594456077
C         6.14547722134665    0.29919956177112   13.71026325607238
H         5.86123113322462   -0.70236253895012   13.42171610392781
C         7.17434822400647    0.94720346404022   13.04732547088226
H         7.69523683792381    0.44887344482123   12.24350639835228
C         7.52675873695866    2.23841783378137   13.40692970578923
H         8.31968532844850    2.74955323977162   12.88146582195738
C         6.85769247202827    2.87716180662743   14.43311465505878
H         7.11923395614870    3.88962236680817   14.71364494510483
C         6.23840941533887    3.97377168658027   17.28633592040844
C         7.32189460566949    3.21824197077013   17.73050881663184
H         7.36541721162008    2.15799844067915   17.51785696985006
C         8.34398678374927    3.82990702652061   18.42888922675236
H         9.18238761362577    3.24424661718191   18.77662614674290
C         8.29482506460228    5.19270920243464   18.68222337115337
H         9.09589270878276    5.66581655073035   19.23033617752997
C         7.22426940811174    5.94592028022727   18.23262239439665
H         7.18641504659070    7.00689250608650   18.42713257306158
C         6.19536503463290    5.33985515958702   17.53281706508848
H         5.35566370195217    5.92733313146414   17.18736106723944
Mn        2.92749302256772    4.03965414698097   15.73139947790762
Br        2.75383089751733    4.67642233501908   18.08777180612948
P         4.90425061230443    3.15270246377678   16.37186772691120

