43
CSD_code = RERDAW | q = 0 | S = 0 | Stoichiometry = C20H15BrMnN2O3P | MND = 6
Mn       -0.52213335207418    5.85271118214648   10.48727478593913
P        -0.28617779388195    7.82598823869949   11.55422624013938
Br        0.46683525243893    4.99866947778256   12.55595181389353
N         1.52630332954154    6.26891290123252    9.95341064250651
N         1.36612829364791    8.12936404489346   11.32483235528704
H         1.83133418916924    8.89377745370344   11.79944428678168
O        -3.27007263068429    5.45440686367651   11.42744928568523
O        -1.31251510757575    6.89806117864203    7.87704540970614
O        -0.61696402114012    3.13515556202834    9.38883198561247
C        -2.19086838227416    5.60449836536728   11.06094132347175
C        -1.01560177947153    6.51475082267406    8.92157783225257
C        -0.53876506856683    4.20042905552374    9.80897179620093
C         2.26511854564122    5.46190872216755    9.18628326545862
H         1.74755129390372    4.63510297927067    8.71770919009215
C         3.61679023512227    5.63811041294573    8.98435406981021
H         4.16155328303190    4.94965701371143    8.36039047094211
C         4.25241643187084    6.70694444822026    9.60670584173248
H         5.31110629622206    6.87179693249537    9.47995277763898
C         3.50383277009115    7.55284491828404   10.39187266782202
H         3.94986909880966    8.39589353653023   10.89692669478520
C         2.13448452917926    7.30626781765578   10.54588244134386
C        -0.49173093832699    8.13490014597244   13.33022950271603
C         0.54617073394293    7.96370350191015   14.23900170662522
H         1.51616990657127    7.62174138849256   13.90641393163635
C         0.31941895975565    8.19043306930630   15.58431266446907
H         1.12474110890940    8.05486993712814   16.29054045523115
C        -0.93659858735831    8.57191341241089   16.02550321897838
H        -1.10920705802254    8.74174145830779   17.07768460384714
C        -1.97719380417693    8.72093891503133   15.12202461695983
H        -2.96047056160516    9.00291311762869   15.46802927326201
C        -1.75856064871720    8.50154550299862   13.77567938342645
H        -2.56604521310987    8.60780326770655   13.06194949730371
C        -1.05476527764321    9.36218544032686   10.92209659438750
C        -0.51370229471791   10.60921603729961   11.21915185092194
H         0.37681872850964   10.68315592256496   11.83035554392936
C        -1.12120843516525   11.75683807022336   10.74667023791537
H        -0.69593544886574   12.72339331518956   10.97422338044898
C        -2.27856760269066   11.66883667765116    9.98851779895065
H        -2.75035420695062   12.56783634937304    9.62111865100530
C        -2.83287958965242   10.43151691897955    9.70805676109335
H        -3.73930964799009   10.36175633256003    9.12553109690327
C        -2.22211184106493    9.28019222802494   10.17320199438613
H        -2.65130369463308    8.30751706326079    9.96207205850027

