64
CSD_code = RERGIH | q = 1 | S = 0 | Stoichiometry = C19H37IMoN3OP2(1+) | MND = 5
I         5.12399925237976   14.96581226646399    7.88681487876102
Mo        3.06632101593447   14.57157638634285    9.65629925850632
P         4.32873017090207   15.47735166653413   11.42020206058797
P         2.23180558673979   12.78160893427000    8.38687085315041
N         2.61456777316341   13.18164188060788   11.20186390747213
N         3.73061476963919   14.55351267334390   12.75177522793336
N         1.49549004462837   11.83477626079652    9.63044582259261
C         1.82690437538388   12.09807400085205   10.93268187180168
C         2.95251518367066   13.45704557833026   12.49639386198015
C         2.52409006435071   12.63572606599081   13.54291556349000
H         2.80795162956841   12.84279087549615   14.55766117894409
C         0.86718971401093   13.21899402078930    7.23352322876012
H         0.51957088199818   12.32466155828132    6.70108112744243
C         3.36975842048266   11.58790207394755    7.52222108572717
H         3.95170853625330   12.23134342831157    6.84698067421213
C         6.17958031384694   15.29883787458980   11.53213279366976
H         6.52701507107083   15.71500811888017   10.57530358085162
C         4.31100638035349   11.03615368126940    8.59514480045456
H         3.79520608859324   10.32292427717134    9.23883208579791
H         4.70868869180809   11.84632397333635    9.22489265407308
H         5.15597927475918   10.52848865328303    8.13509575534685
C         6.47160423952444   13.79709424743151   11.53811773595315
H         7.52489772716248   13.61438036710595   11.33817146353371
H         5.88866823066902   13.28003560023513   10.76254883933204
H         6.22637809171014   13.35482158570830   12.50365409087049
C         1.37470276639453   11.26463431975323   11.95913923583056
H         0.76233641510283   10.40892084532978   11.74506987500512
C         1.73059442254850   11.54276499063378   13.26276898252273
H         1.39267612413370   10.90285975405358   14.06192917645268
C         4.02535606238829   14.92665985972062   14.12666358855265
H         3.10779892119877   15.04017203252309   14.70768453342846
H         4.54052661709691   15.88402316235639   14.11577343395877
H         4.66580428798449   14.18894670906375   14.61659861589450
C         0.59030105436473   10.73797154620451    9.32350537850504
H         1.02543948625074    9.76878709454595    9.58046680957332
H         0.38346588732023   10.75519937523479    8.25618622796217
H        -0.35560558483682   10.85318108761940    9.85692476912195
C         3.89479280447152   17.22213763356827   11.81248618553509
H         4.49340713152564   17.57627795793134   12.66141048103801
C        -0.27858483609962   13.84986392787421    8.01630159677367
H         0.09256756555747   14.69058603057984    8.60954824331668
H        -0.76022984204778   13.13544293747366    8.68161219273637
H        -1.02899908027714   14.23238714858729    7.32805194524748
C         1.46252620807214   14.21226799433632    6.23538262310488
H         0.72315838099656   14.47647222610807    5.48257206368575
H         2.33257533203505   13.79915902775837    5.72444959506274
H         1.76161978161455   15.12785827487441    6.75448427078090
C         2.74970748702012   10.46943691852711    6.69276145940736
H         3.54400098522494    9.95132929325954    6.15846928074759
H         2.05640872963724   10.85620812551979    5.94973014470664
H         2.24000502421529    9.73734009174101    7.31337072253536
C         6.92200390681837   16.02021227805797   12.65125734335706
H         6.71473419245968   15.58575734242508   13.62592107343360
H         6.68714886867527   17.08213133647559   12.67186253242658
H         7.99187020508466   15.92678766236502   12.47151004542284
C         2.40901844372889   17.31712963297596   12.13998701448533
H         2.12463072816581   18.35948741213350   12.26538156204115
H         2.15928129962329   16.78515675272040   13.05663674655095
H         1.81686740639202   16.90390837346415   11.31848442779735
C         4.23731473529819   18.03596928433148   10.56475008084825
H         3.60785417879236   17.71744106527942    9.72781071600723
H         5.28337788406566   17.91719089622836   10.28097452058202
H         4.05339342124385   19.09310296039408   10.74360344592539
O         1.87981106914129   15.67705058858419    9.46425465839926

