57
CSD_code = RERHAZ | q = 0 | S = 0 | Stoichiometry = C20H28N6O2Pt | MND = 4
C        -0.83298501192691   -1.93627441559259    8.48827038513374
C        -1.01853224367532   -0.74583420198163    9.42644371841858
H        -0.60444937158285    0.15304788246373    8.96925412381424
H        -0.49336703946108   -0.94531482536355   10.35778417629513
H        -2.07352948609195   -0.59901991025536    9.64671367937250
C        -0.33509521959554   -4.15889458043923   10.01174329671296
C        -0.54446462216300   -4.09806252638642   11.52796909566743
H         0.04043136816192   -4.87931991932606   12.01340369679704
H        -1.59672833400294   -4.19061286387888   11.78695989753234
H        -0.17459967161276   -3.13517310800124   11.87697671994537
C        -2.69550657216344   -6.67602640730914    9.68266719929912
C        -3.81037986135648   -7.26671179198460   10.31115173137721
H        -3.83615638140026   -8.20711573662379   10.82207908587879
C        -4.85370232790988   -6.39135077695731   10.13637385296678
C        -1.33063441056850   -7.23590133001387    9.53698662057859
H        -1.37936692212708   -8.23264855409684    9.10094933888917
H        -0.84592468282349   -7.31330956049988   10.50862323487818
H        -0.73080519080926   -6.58884714748877    8.90137388796755
C        -6.26656848625791   -6.46285888270889   10.58861889767791
H        -6.40098900780519   -7.35036665676255   11.20011833888104
H        -6.95391986996822   -6.52498646549102    9.74312745475728
H        -6.52799719133559   -5.58843620238061   11.18458371935544
C        -3.33953409106471   -3.35055533405925    5.98639204980418
C        -4.48822047540916   -3.90836227445386    5.38726053119474
H        -4.67246329008218   -4.02129618790744    4.33867428551155
C        -5.31362870790624   -4.28605580405328    6.41585504398744
C        -2.15265277208482   -2.79320574895049    5.29777143796207
H        -1.96571120059941   -3.33895685274054    4.37613998252072
H        -1.27854950397648   -2.84765480608049    5.94360951333396
H        -2.32057036276949   -1.74503263667228    5.04999379041439
C        -6.64050936963331   -4.95408018427549    6.39486985507941
H        -6.94090201430341   -5.11177943440029    5.36291949885484
H        -7.40291179852805   -4.34599579165675    6.88358614924146
H        -6.59778707794653   -5.92466712398311    6.89084815743555
C        -5.75119785642636   -2.00566394877725    9.88011369454975
C        -5.18863383268310   -1.17377826296994   10.81488941609226
H        -5.58191984261087   -0.24437970427367   11.17266604345078
C        -3.98355789555030   -1.79272079827072   11.20697712713312
C        -7.00300825150045   -1.88886437455182    9.09026856546890
H        -7.49798931410827   -0.95449633205894    9.33849613784099
H        -7.68958181700018   -2.70870855727448    9.31030259502474
H        -6.78876608903000   -1.89348301511797    8.02100088121620
C        -3.03479592041571   -1.32257566057677   12.24798499982836
H        -3.42376079960333   -1.55912886882119   13.23871010827912
H        -2.90311034248713   -0.24500159331663   12.18362568282154
H        -2.07943240822887   -1.81748370325780   12.11893480625515
C        -5.07394758973850   -4.21030359145380    8.91612570229296
H        -6.14339278574703   -4.46482290500118    8.89865298519629
N        -3.04510006823746   -5.51310306497821    9.16624716075399
N        -4.35105454000349   -5.34234987116141    9.43114850308575
N        -3.46973529977596   -3.37865536616140    7.30072581501088
N        -4.66678949933462   -3.93738920862844    7.56365300655773
N        -4.89411399658448   -3.05881444042802    9.75650047082905
N        -3.81504469796017   -2.92454682082678   10.54588176433002
O        -0.13945364288634   -1.81292040917425    7.50209342558451
O         0.68482908331790   -4.64383939287815    9.57383165349722
Pt       -1.85153139262690   -3.60360994973526    8.85877700736150

