32
CSD_code = RERHOL | q = 0 | S = 0 | Stoichiometry = C10H17Cl2NSiTi | MND = 8
Ti        2.30060503715357    9.07414971894625    0.97979416552786
Cl        1.82491498440679    7.40673788021793    2.27271842791104
Si        1.48605802018747    9.07417851861076   -1.81111479627773
N         0.87512774407655    9.07421763772190   -0.18000240527452
C         3.24271245734086    9.07426085097241   -1.06768595630671
C         3.72782685193985    7.93578351794405   -0.36683616764665
C         4.53226428868355    8.36870250364170    0.70951778190708
C         1.14497476975920    7.49892544101448   -2.84156881200501
C        -0.48841093782477    9.07432321930700    0.30505387762802
C        -1.22184124713205    7.80911325484670   -0.14837520348779
H         3.59514222967566    6.90499328537363   -0.67730328457158
H         5.12865762473794    7.73310260961261    1.35410766645824
H         1.16274204042910    6.60723206599075   -2.22193454098952
H         1.89231903445972    7.38262964797922   -3.61907423539671
H         0.17669042400651    7.54765660962534   -3.32793999739530
H        -0.45412692213388    9.07432002740253    1.41156012370612
H        -1.32458254848292    7.80930435727095   -1.23086260375026
H        -0.64808423843573    6.93408761787313    0.15564468726953
H        -2.20893045132271    7.76046185892739    0.30394381458813
Cl        1.82486197847683   10.74128040547673    2.27305887388220
C         3.72768999474647   10.21275272674768   -0.36676424053761
C         4.53217358245977    9.77986173172663    0.70956933207368
H         3.59487372905083   11.24354637074164   -0.67717116877862
H         5.12849855286125   10.41548987242086    1.35419304756488
C         1.14491964436649   10.64925391073218   -2.84155559136661
H         1.16113277488573   11.54109392420921   -2.22181447666491
H         1.89309440047441   10.76657904680596   -3.61834025101526
H         0.17714483308613   10.59996748076578   -3.32927172291189
C        -1.22163097102982   10.33965600421362   -0.14837761814299
H        -1.32433362718073   10.33950427501739   -1.23087034866043
H        -0.64775641101943   11.21458879393495    0.15569103932987
H        -2.20872764270270   10.38844483392867    0.30391058333338

