30
CSD_code = RERMUW | q = 0 | S = 0 | Stoichiometry = C7H15N2O3ReS2 | MND = 6
Re        6.45667842395751    0.01991214462742    6.04066014824520
S         5.39692052210336    0.85126024860092    4.14264439435623
S         5.72803944027710   -2.14398631525320    5.68404901634262
O         5.51355338258242    0.57058003018967    7.29882103464336
O         8.07023311399426   -0.07058948607021    4.89483845429638
O         9.52943674942839    0.88614223657649    3.51395273331875
N         7.47981942780312    2.23297721573289    5.94641724502586
N         7.93114163401793   -1.08630506958397    7.54691170869790
C         6.49247215294998    2.29304434399837    3.69511737052778
C         5.70339466504800    3.57245903964422    3.97697198887280
C         6.80736934260553    2.18273323074067    2.20621848821736
C         7.79240281630780    2.24730741342089    4.51980631906494
C         8.56671838384692    0.91136664770756    4.24379538262949
C         6.88011333369701   -3.12189917916847    6.73281951131559
C         7.30094477212285   -2.34185674847515    7.96444941325915
H         6.33770034057075    4.45096866267052    3.86268766609953
H         4.88088513224892    3.64416777587463    3.27044244226400
H         5.27029587197152    3.56063174449362    4.97541322573348
H         7.39743351765024    1.29408061679415    1.99713415555945
H         5.88194708833103    2.12112010006917    1.63935415419313
H         7.36921816005003    3.05428135426678    1.87398736790957
H         8.44366352759757    3.08413220305539    4.23121144435070
H         6.35224903733847   -4.03360299908037    7.00583363765556
H         7.74405846805187   -3.37642190717502    6.11604884853366
H         7.98426129623329   -2.94804036605446    8.57584841256000
H         6.41615844042522   -2.08753452961568    8.55443072910614
H         6.79396517239647    2.93990206787624    6.19780687137882
H         8.31396972461657    2.36374062829070    6.51125877109070
H         8.78740602315537   -1.27222840098676    7.02585875226712
H         8.14875003861932   -0.50414270316739    8.35011031248364

