90
CSD_code = RERNOR | q = 0 | S = 0 | Stoichiometry = C28H52N6OSi2Ti | MND = 6
C         4.69572902292945    1.78131929524079   19.45043134947718
H         4.33386827602179    1.78559672265385   20.48449261534158
C         4.91570263240681    0.32904189388364   19.03801258053876
H         3.97321106655696   -0.21289915276241   19.00785560043542
H         5.58570551122728   -0.17573204776506   19.73418551096202
H         5.36378020766922    0.28333223828553   18.04890984418998
C         3.66312222466685    2.69147543527406   16.46755789473619
H         2.97843881173700    3.46120615214472   16.08872457027495
C         5.07951575415479    3.07840993150673   16.05272064890332
H         5.38388968819875    3.99805260420282   16.54507968428364
H         5.14024147377817    3.22780486273385   14.97445228555100
H         5.78538185334623    2.29437823539089   16.31862827578054
C         2.97750451297705    6.84824415986985   18.10419324294831
H         3.07359757863093    6.49237747851648   17.07196046615190
C         4.36766151344199    7.28772249916257   18.55671202381303
H         5.03274714994502    6.43075683809454   18.61138764878638
H         4.31897920534441    7.75296076651250   19.53841340300233
H         4.78939526416125    8.01314377856566   17.86092141624680
C         2.24289974156462    5.71664231230126   21.03873119214197
H         1.93231322882216    6.75439179175073   21.20595764035461
C         1.22910259880998    4.80997443787202   21.73788588769068
H         0.23555095701728    4.91840837122799   21.30703977275835
H         1.17069170034373    5.04343178027632   22.80174582980952
H         1.52892697422375    3.76951619258365   21.63182241596576
C        -0.40683251438816    5.20088483592151   18.56004334168051
C        -0.87448809773446    6.33627489542845   19.27035524831382
H        -0.15494191599182    6.93488045123949   19.80610737541640
C        -2.20936244987246    6.64991992601158   19.27456044962196
C        -3.09002471564308    5.81819756291232   18.55905742611895
H        -4.14695340828311    6.03233802321363   18.54025926419426
C        -2.58099766151789    4.73277935350773   17.88474749628389
H        -3.24218271389199    4.07878904498256   17.32446328675707
C         0.71827740430194    5.03942644837453   15.40627367538325
H         0.93243424340596    5.62897744475655   16.29764858273778
H        -0.19628436848022    5.44062918546573   14.92847262891044
H         1.54471517572196    5.18563640088666   14.68847469067121
C         0.40989571793525    2.89616961127282   14.50562428511798
H         0.27587216064070    1.83559485663179   14.71909858411468
H         1.29773253692004    3.01777535049118   13.86276817170714
H        -0.45870123110461    3.25858035980278   13.92579132609597
C         1.02503024658163    1.89001455787564   19.56429734544171
C         1.44527452599118    1.22592251716697   20.73807693765899
H         2.45296218904016    0.84727736276797   20.78986195259673
C         0.56902307929025    1.04750710299833   21.78404572659102
C        -0.73707763527161    1.54173580519825   21.65168872476399
H        -1.45039884563117    1.42418274031005   22.45212729982070
C        -1.08675447979176    2.17594351139033   20.48010035256661
H        -2.08826667307663    2.57305326478237   20.33840957241535
C        -1.98226282210986    1.56521750053054   16.42328959932435
H        -2.11878434659785    2.54456831862383   15.95701687700869
H        -2.72131642604907    1.44149792817187   17.23857944690645
H        -2.20081288196345    0.78716263923299   15.67024217469738
C        -0.37923631059160    0.09534378342999   17.35101201278501
H         0.66206872177532   -0.01584642064968   17.66317532936442
H        -0.57666045118243   -0.62324566299621   16.53574516948004
H        -1.03231688205767   -0.18955228002522   18.19897759876134
C         6.02370562478817    2.53578562810881   19.46028825590824
H         5.86074402918960    3.57620398367044   19.72484306708469
H         6.49474572339781    2.50119604585369   18.48297065971548
H         6.70864664434809    2.09392183416135   20.18407380060316
C        -2.73742689336783    7.84115797054551   20.01149914667972
H        -3.50717136608812    7.53677230456187   20.71955670677649
H        -3.18934492097230    8.54342551761161   19.31158345128195
H        -1.94191115388227    8.34837250095239   20.55122656466158
C         3.25832640875887    1.36856754600148   15.81838373760398
H         2.22103752858026    1.14435849299391   16.07591193699438
H         3.89430998006815    0.55737358596394   16.16684129825018
H         3.35127401153524    1.42675370489919   14.73396210598748
C         0.98087846412185    0.34669094576745   23.04148606997711
H         0.85521729586840    1.00905573122426   23.89758544017770
H         2.02004954893779    0.03196753167681   22.99033246895045
H         0.35518947850609   -0.53023098961840   23.20574334381472
C         2.03262170542031    8.04657603732150   18.09217246669478
H         1.05007578078879    7.76249530771527   17.72162955691439
H         2.42262365189589    8.84107395812921   17.45609348607630
H         1.91614539944229    8.44875754205384   19.09675138200951
C         3.61069485907242    5.53166010123581   21.69435220277895
H         4.34064262976760    6.21813562121308   21.27661756164689
H         3.96544635850251    4.51844027399724   21.52609191367086
H         3.54766298625778    5.70516081987228   22.76890152368781
N         0.84129162022127    4.77051636132485   18.48044272980059
N        -1.28573479057911    4.42338033247696   17.86463196724830
N         1.75153505991080    2.08165686327436   18.45488698259697
N        -0.24669588970100    2.34741571838425   19.46666031789318
N        -0.62942130295533    1.44539169353541   16.91132322767996
N         0.55971326728418    3.64100151956142   15.73778536230731
O         3.42374657262009    4.19496576321972   18.93896312957603
Si        3.36802055314454    2.65891551278188   18.36406022558611
Si        2.29639670314793    5.37068973798317   19.13739601935667
Ti        0.24817831361606    3.00610150430059   17.46703813656186

