91
CSD_code = RERNIL | q = 0 | S = 0 | Stoichiometry = C29H51N7Si3Zr | MND = 7
C        14.53171082763594    1.47283192116973    3.87967265574953
H        14.93618353956448    0.85476482906169    3.08358059618417
H        15.21737558104169    1.40002437832285    4.71803502655834
H        14.54647305195364    2.50121769604808    3.52885510928343
C        12.55145759291004    1.09752924227831    6.27447262946979
H        11.66256299535267    1.68148968980829    6.51273620072284
H        13.40621514485515    1.59425514430209    6.72201666292996
H        12.46129434222915    0.12726678260206    6.75221168720737
C        12.60381015630849   -0.94159541414517    3.93027741944659
H        12.65952161698659   -1.10622487673532    2.85843632703164
H        11.65865382346264   -1.35544958187831    4.27003974800490
H        13.39899673068836   -1.51882814987377    4.39178621791853
C         7.12790666433699    6.08540782949883    6.44776211462016
H         7.85696374373835    6.84837910217926    6.70614227819131
H         6.18790205893269    6.35233051914709    6.92055023144300
H         6.98378670316645    6.12679851104421    5.37217353449731
C         7.68040118350351    4.29202313395873    8.90689615804097
H         7.90235315755521    5.25828536757525    9.34919697612280
H         8.39654135479160    3.57725991700895    9.30122513102965
H         6.69737383873836    3.99950077835606    9.26099142466560
C         6.54601464209833    2.97947453690304    6.33817306108083
H         6.21901865910169    2.31772687627151    7.13419695448523
H         7.06821293714937    2.38621311251878    5.58394275169512
H         5.65551504737898    3.40908402091631    5.89115232852786
C        12.50900006607609    5.20159903693000    2.75300104856702
H        12.39875076143063    4.25156744042217    3.27603520275111
H        13.43936119907110    5.66318555373261    3.06972710217849
H        12.59774259202985    4.98781566365289    1.69048442448840
C        10.70482701260925    7.34827642912977    1.51584902404497
H        10.13166408134989    8.25098704905296    1.70290133348435
H        10.17108084777265    6.76517892326123    0.77082281538316
H        11.64925689927193    7.65456851144364    1.07704775256864
C        11.38949024010721    7.57358867846018    4.51898189883347
H        10.57109698215315    8.27116815140645    4.67099919112249
H        12.27751297459629    8.15434702279185    4.29118323994872
H        11.55965376069725    7.06067894362134    5.45994962787316
C        11.28736446375736    2.06834211380981    2.37384594723729
C        12.07557505443661    1.58390691407016    1.30034334601814
H        12.94691340103391    0.99095927206304    1.52647278879688
C        11.74434296329284    1.88356282135810    0.00240535385458
C        12.56502084494043    1.39586938198960   -1.15117467278470
H        11.95786078827494    0.77273990443542   -1.80650413997924
H        13.41700048040463    0.81619571294536   -0.80610347026930
H        12.92713433059042    2.23895788573578   -1.73789818408047
C         9.86839593209911    3.10074396244193    0.84811473161620
H         8.97681848086149    3.70637958198797    0.70919556852120
C        10.60447797718667    2.67188119462203   -0.23150294318395
H        10.31622153533340    2.93069414416196   -1.23784860327084
C         8.47833483363289    5.19209272925755    3.24687137001048
C         7.71223047090529    6.25385507688551    2.69915439501770
H         8.18802073342508    7.21177030822386    2.56520948494995
C         6.39554231572208    6.06214071191653    2.36456573242277
C         5.83302751715703    4.79067436154293    2.57502749576156
H         4.80460822119930    4.60043541496212    2.31189033503172
C         6.61540969992208    3.80545868882981    3.13162629736442
H         6.21200135015868    2.81515514295468    3.31421319384126
C        10.43964262117280    4.46134836151417    6.59017002213375
C        10.73168313704797    5.35735552374318    7.64994823503184
H         9.91784306249209    5.71371650003691    8.25926230698510
C        12.02255070203607    5.75379724274056    7.89233309611344
C        13.03871731791569    5.25102147467905    7.06102510795008
H        14.06709833276396    5.53021791769358    7.22638630694520
C        12.69351797681897    4.40975675526795    6.03045561981808
H        13.45604376922341    4.00658183730670    5.37433852437646
C         8.53137357962803    0.51090286522394    3.51158479234702
H         8.21419579030310    1.10092530752346    2.64442942656729
H         7.72716185301842   -0.21286379876801    3.74844066445951
H         9.42392059417252   -0.08562651263300    3.22223077400535
C         9.10763953616010    0.59775546133345    5.80799426839919
C        12.36192989175769    6.70022226298217    9.00167795670405
H        13.11232910686214    6.25977507389237    9.65691460109744
H        11.48035531056752    6.94472099956198    9.58868594628692
H        12.77740705320615    7.62087315970631    8.59249541479297
C         5.56018909318194    7.16476018658124    1.79064267678203
H         4.70794757349826    7.36520956762114    2.43866747628431
H         5.17337610206641    6.87516499588362    0.81441528699203
H         6.14062900998647    8.07713232295887    1.68200897642991
N        10.17741282760059    2.81548539602321    2.11124259263158
N         7.89155742784740    3.98045278300296    3.47306453927042
N         9.25027580242346    3.94626783183428    6.29396598115092
N        11.51975134593581    1.89197015079886    3.67503321982620
N        11.44319776532642    4.02033932364908    5.77534437590137
N         8.78398376935875    1.38384825097082    4.63622035007485
N         9.76277286501552    5.23619861362031    3.57978787945891
Si       12.75104803291288    0.92431482540919    4.37845252320077
Si        7.72240880537999    4.33758975632421    6.98001637929891
Si       10.99553902935538    6.32330177698821    3.11815282845189
Zr        9.82410667380901    3.13047148079273    4.35423388595979
H         8.27515504273204   -0.08725292232638    6.06310805214383
H        10.00705088255462   -0.03360605810793    5.66059591034266
H         9.26950411036273    1.26582919187432    6.66326408852906

