99
CSD_code = RERNEH | q = 0 | S = 0 | Stoichiometry = C34H54N6Si4Zr | MND = 7
C         0.34622789335115   -0.57476182975245   12.24269882600277
C         0.82704264406335   -1.10565727629601   13.46480770761424
H         1.50041184960326   -1.94666053544702   13.42815991476106
C         0.45404396806269   -0.54112503708259   14.65968144554154
C        -0.41132030891584    0.56642261715818   14.63506567279305
H        -0.72243992699831    1.03634092628442   15.55453261264329
C        -0.84843708595079    1.03648387262434   13.41795027596943
H        -1.51740546664969    1.89090449657448   13.35960778424342
C        -2.54275076501604   -1.10846830487544    9.05422688837189
C        -3.57948032241136   -1.95045070144910    8.58264281794814
H        -3.86882021279674   -1.87582282541482    7.54679688440499
C        -4.17880364834519   -2.85103077553018    9.42859143128497
C        -3.74008867436104   -2.90964958129420   10.76274018680392
H        -4.18644183740258   -3.60704816193411   11.45372880723120
C        -2.73223056463834   -2.06336267177542   11.16488033055183
H        -2.36711668704910   -2.08037746368962   12.18827119766764
C        -1.55554103188636    2.88271151537944   10.43737309644255
C        -2.08940974997979    4.16837904574475   10.69908170475403
H        -1.40803850972197    4.99979011212174   10.77984220913538
C        -3.44582224317080    4.34227823788539   10.82539828440753
C        -4.27987669268537    3.21903653796545   10.68986212895941
H        -5.34978697633561    3.31972638704365   10.78040670567287
C        -3.70391524051057    1.99477115818405   10.43844669612783
H        -4.31688577579292    1.10439982465442   10.32711895907622
C         1.09498989909906    0.52686655868551    8.43975684626532
C         2.01239421577965    0.47722938754016    7.62885961979095
C         3.03244483258874    0.41193424546563    6.73000437124765
C         3.94615495383278    0.33959775778460    5.92955566591279
C        -1.50310070779155    2.29395186900878    7.04839409278742
H        -2.21772280384284    2.88816543922591    7.61412070176764
H        -1.34392871609066    2.79490231455607    6.09881378748864
H        -0.55646683543555    2.29265313220265    7.59603635956272
C        -1.07485962706147   -0.38945152911302    5.47054577242223
H        -1.37299701853263   -1.42591091777878    5.34340676911465
H        -0.02469332280455   -0.38011256031496    5.74961669930609
H        -1.16624407178969    0.09940396900716    4.50655210985819
C        -3.95152845846967    0.58412532066691    6.21646787584052
H        -4.62531935737744    0.76278187527850    7.04945752904922
H        -4.26601075000204   -0.33148737868086    5.72559357968797
H        -4.08774190985944    1.39224557208111    5.50517393541049
C         1.10673335828666    4.79469351616036   11.92775643629611
H         0.43468759709929    4.52513771493494   12.73733256308378
H         0.76689556564356    5.73885289932673   11.51377962707550
H         2.08695457782932    4.96849352505369   12.35968906761573
C         2.34818128229915    2.03607777463499   11.25833920164149
H         2.10699055567401    1.77120636707737   12.28563719703267
H         3.38788720405903    2.34702056672668   11.23918482349860
H         2.25154982287305    1.13545355450495   10.64506201067521
C         1.89590564846161    4.14262851680859    8.97377040508386
H         1.23517795141085    4.88934289648912    8.54344700451610
H         2.03150723645740    3.35624207379655    8.23593735399609
H         2.85955565405309    4.61239190219394    9.13887921153212
C         0.41551902938306   -2.80463951242179    8.81660778887508
H        -0.55547320177523   -3.25385666839117    9.01361658695087
H         0.96469353047056   -3.48699311467326    8.17576597474750
H         0.25258031951927   -1.87576989280060    8.26321461426898
C         3.22539591221595   -2.16408127801394   10.07665496051417
H         3.78090137423498   -1.91359520225130   10.97556202046575
H         3.35134841813804   -1.34673155902178    9.37212230110731
H         3.68185624193628   -3.04760547079569    9.64352096020991
C         1.17955188336065   -3.99487403867815   11.56802495417517
H         0.21642998044118   -4.00215951594564   12.07017010127379
H         1.95152614559108   -4.04175381444588   12.32962295445755
H         1.25112593990085   -4.90593762197901   10.98282128014709
C         6.19264412698421    1.89971857872450    4.55034040221312
H         6.58973215903621    2.23438628973639    5.50401939421978
H         5.49829208304639    2.65825294419996    4.20154650153726
H         7.01851566922407    1.85991926943742    3.84528284596121
C         6.58280498408964   -1.09356046540198    5.34861826316301
H         6.98579134101368   -0.81196235150064    6.31683836142639
H         7.41898780255731   -1.20825889472278    4.66427558415491
H         6.11336475657970   -2.06625486159285    5.46116291059580
C         4.63686595645163   -0.33825082485457    3.02691933190742
H         5.42363826396788   -0.43528340843074    2.28376246363334
H         3.91562259659804    0.38118552395863    2.65092878406549
H         4.13308125833482   -1.29740380684438    3.10036300826509
C        -5.26961252102596   -3.76363839483165    8.96047340523179
H        -6.16717897533573   -3.61701584550268    9.55976234888464
H        -4.96265380717927   -4.80268294769966    9.07295034166641
H        -5.50953493724710   -3.58033901159487    7.91655472158513
C         0.95227320333788   -1.07048315403757   15.96868942512871
H         0.11449827521405   -1.33592741031522   16.61200556184423
H         1.53591336858585   -0.30784940484988   16.48291464377523
H         1.57578947494983   -1.94829047021369   15.82172623931334
C        -4.04430258193859    5.68843098702892   11.09314674931534
H        -3.27076277916851    6.44356411412724   11.20418823785231
H        -4.64368123874213    5.66070108698877   12.00213412686077
H        -4.70051102084388    5.97629192039755   10.27269799780641
N         0.64393474922498   -1.00189173812779   11.01974282293838
N        -0.50009185240669    0.49805164959787   12.25192670436301
N        -1.85970965734861   -0.21643080005672    8.34408199487897
N        -2.14419309156448   -1.18286749332903   10.35906977442249
N        -0.27403264176901    2.57366414876885   10.26841140546140
N        -2.39195490488972    1.80868104079112   10.31809732736832
Si        1.36489908965881   -2.44709366438779   10.44226101920033
Si       -2.12435899084113    0.49722226741872    6.80775955428134
Si        1.18603977880032    3.40973150600311   10.59707117418402
Si        5.33137214673483    0.20448894328591    4.72048845771666
Zr       -0.54954906763263    0.44952643853878    9.93510043158084

