44
CSD_code = RERQIO | q = 0 | S = 0 | Stoichiometry = C21H20Cl2Zr | MND = 12
Zr        4.69447871270566   11.18057586693847    4.95840331615386
Cl        5.43938708764762    9.22314230528550    3.93942219183959
Cl        5.29682400060298   12.42656378643002    3.06191740441887
C         2.34627864955028   12.42279911544291    7.29748247986286
H         2.23709565821253   11.88260185749845    8.22834228097712
C         2.28688174780310   13.79605728379460    7.28531466424584
H         2.13963358321636   14.33031739221685    8.21250233149914
C         2.40961273630461   14.52811906722770    6.09424874882627
H         2.37994805176129   15.60603665718933    6.13517392119064
C         2.52673230277575   13.88876231088686    4.87969357616255
H         2.56732087700663   14.45293269286396    3.95781243594264
C         2.37231191973262   11.72356787645514    2.37520929840944
H         2.36213300466728   12.72129190967390    1.95864904461194
C         2.27183513608318   10.61826116998440    1.56410633072167
H         2.18999139522240   10.73934746987132    0.49498756954213
C         2.26284227154372    9.32654668289598    2.10973611998313
H         2.17071851702928    8.48063509402503    1.44488391038354
C         2.36020254910220    9.11122930682832    3.46287767982373
H         2.33433184036625    8.10115344556601    3.84556988977549
C         2.60498580648908   10.33014528243656    5.76881905800819
C         2.51399575043731   11.72895577949851    6.08081990600544
C         2.54086371388675   12.48841500242538    4.84851405596530
C         2.47836243285199   11.54109105493153    3.76078602653131
C         2.47976127218333   10.21588627877949    4.33337390571579
C         7.06551999575806   11.47097005254875    5.69301080643654
H         7.90956964847629   11.24606327267020    5.05146145052461
C         6.45701580834520   12.73513016878560    5.84970247146906
H         6.76274391943237   13.65044541925775    5.35855010575293
C         5.45720327754152   12.62285715604066    6.83694663437213
H         4.91037421641446   13.45054523991423    7.26930788846395
C         5.45102916968640   11.28340759871545    7.30459200929885
H         4.90985934881424   10.91946601931065    8.16976006013492
C         6.45487555342005   10.57556230697707    6.59967510312318
H         6.79116002055220    9.56435771938702    6.79808818158089
C         2.46382364523859    9.21273490548305    6.77856952560429
H         2.55888767366505    9.64965404718002    7.78211900602714
C         3.57323569587754    8.16678304554987    6.61323434057262
H         3.49470260258517    7.41213004031760    7.39416218807071
H         4.55854314813463    8.63746911507334    6.67602754117650
H         3.50098360693793    7.66716844833266    5.64993086370429
C         1.07679461334698    8.56385268362179    6.68837220264251
H         0.96624368560187    7.79963895168417    7.45443244139924
H         0.92846270731019    8.10355995433658    5.71600514322274
H         0.30234264568071    9.31386916566730    6.83190588982699

