51
CSD_code = RERQOU | q = 0 | S = 0 | Stoichiometry = C24H24Cl2Zr | MND = 12
Zr       -1.65360427220679    0.94486362191720    9.92326220765077
Cl       -2.87235037509161    2.58556218359769    8.80574343287940
Cl       -3.62153797686838    0.12292135148674   10.90665994652305
C         1.52040193364357    0.25979675095240   11.32885955927201
H         2.39089899733024    0.52238496842089   10.74281042671558
C         1.51419068776991   -0.89266366283031   12.07791950630813
H         2.38068128673727   -1.53760817734294   12.06964304529209
C         0.40769063659929   -1.25581081086363   12.86132935558673
H         0.43804494006906   -2.18148560616379   13.41512485120257
C        -0.69042781038882   -0.43015706125977   12.96101011997568
H        -1.51936809215353   -0.68558981232005   13.60708579461918
C        -2.73754271983574    2.17556499881643   13.03623661238237
H        -3.11366217307901    1.43193012457771   13.72515746782462
C        -3.36500813655513    3.39057404440304   12.89621661664886
H        -4.25095785506212    3.60988918266006   13.47182793658265
C        -2.86063217098139    4.36147105393171   12.01903995746227
H        -3.37033532212366    5.31044045454548   11.94342483406945
C        -1.73556316569533    4.13969356241872   11.26295996776154
H        -1.36917522144089    4.91895529750988   10.61039891580708
C         0.10814305705257    2.36049412043629   10.71731259784813
C         0.39620058693889    1.11103816246003   11.36393571933239
C        -0.69813811022138    0.77750210421751   12.25118802486543
C        -1.58873228447344    1.91349559682982   12.27733881873283
C        -1.06731312108254    2.90038582332327   11.36164561781190
C        -1.11387200886144    0.26222606132271    7.59961435195952
H        -1.09788484587243    0.93396467999240    6.74905286447371
C        -2.21653495803178   -0.53171872657045    7.98747919859213
H        -3.19282802756995   -0.53435626532180    7.51685194155399
C        -1.79168955432585   -1.39654915577338    9.01934782076377
H        -2.38232184060475   -2.18563431347861    9.46770739321589
C        -0.43392361945292   -1.12875935913030    9.28670173101843
H         0.20390524459270   -1.71844625919732    9.93199946764986
C        -0.00910946158555   -0.09814322552289    8.40910426365885
H         1.01553945714429    0.21954534974016    8.25800548905596
C         1.06753579134190    3.10124920454102    9.81719709848825
H         1.87302476435465    2.40955254561490    9.53292345586706
C         0.38835115508751    3.58287802229946    8.52612374122285
H        -0.41007707168895    4.28804968606523    8.76383280280646
H        -0.06884070951784    2.72982026915982    8.00701958570522
C         1.40557512809877    4.27036976175886    7.61724580099041
H         2.17959375928858    3.55568307325850    7.32562121385264
H         0.91228969352434    4.61771993445567    6.70785176010908
C         2.05321008449750    5.44869768067488    8.33954315125757
H         2.78723990551496    5.92636767140092    7.68785092101981
H         1.28792151008153    6.18957018750915    8.58009844202726
C         2.72784734229967    4.98187651190204    9.62614328738565
H         3.53463616456841    4.28712340168787    9.37993053952356
H         3.17043932159388    5.83429110883807   10.14489147728405
C         1.72118520260783    4.28946002621659   10.54024993321088
H         2.21853443814161    3.93242046026473   11.44470030069521
H         0.95294981589257    5.00139339656988   10.84338063345646

