89
CSD_code = RERREO | q = 0 | S = 0 | Stoichiometry = C45H35ClN6NiO | MND = 4
Ni       14.84245634831125    6.83271768449107   -0.22627689023670
Cl       11.58757264841178    4.96583540440102    9.19649379268647
C        16.17189695265009    7.61499123941160   -2.63491822664623
N         9.96417919670278    5.20165073753958    2.79095024220468
C        15.22872754726916    7.34436861053486   -4.92373283645460
N        13.53465480486369    6.25966967386999    0.82541407958657
N        13.80983684020577    6.41453935494233   -1.58578305768774
O         9.19858948783692    4.84462252984020   -0.64982400641833
C        17.49892619151251    8.56865609887473    1.98462937580939
H        18.38333717215347    9.16965408945151    2.07454848701814
C        15.60366123477307    7.41219390632577    2.45097240434376
N        16.09544304473707    7.48457049135858   -1.27646144035796
N        11.13082951249730    5.53308111652275    3.36504493188450
C         7.70709509498274    4.61290969111935    1.21115592829710
H         6.99221684219906    4.24602484555770    0.47990303255344
H         7.33772129367879    5.53656085868965    1.65191675866296
H         7.83957000570339    3.89444451525465    2.01511377172760
N        15.85614389786670    7.34233680662029    1.11660294300736
C        15.42980136102166    7.68024181073927   -7.68164908111176
C        15.52063463071436    7.86878793541950   -9.16559565780911
H        16.06977011343601    7.05350909259078   -9.62962007734929
H        16.01727153918961    8.80778023781093   -9.40335463322359
H        14.52165018213256    7.90131188030385   -9.60065105120646
C        14.87430921545658    8.56614034273823   -5.49903052914087
C        13.94561227346058    6.57611709794019   -2.93091609106106
C        12.37538860421955    4.80857290901372    5.30356426720708
H        13.14618345772062    4.42065622421538    4.65721022948793
C        10.33452261262781    5.74637317919792    6.94385179563759
H         9.54760455326633    6.10220306451483    7.58969515951862
C         9.03073745275573    4.88485090032017    0.54950662206736
C        11.25813618686545    5.42658945079083    4.75399995612538
C        15.77492580719764    6.47519139267220   -7.08911817051498
H        16.12662799200873    5.66015312158843   -7.70590971383381
C        14.21836368344837    7.05026776849494    4.45581949354418
C        13.39947418168685    6.29612575250975    2.20417081835675
C        11.86796947870769    5.77390661527573   -2.48107832318421
H        10.86048899502175    5.41518138738490   -2.55748995148680
C        12.58468732205122    5.95753464139875   -1.27843272818902
C        12.47547798711198    4.66514442018801    6.67292082123619
H        13.33068471213824    4.17503935825164    7.10871225076243
C        12.71257761286445    6.15511452776299   -3.51011753241178
H        12.48820694141487    6.15015517814025   -4.56002189870395
C        14.38100882490484    9.68672919197859   -4.63449685933010
H        13.53191801436207    9.35962340700239   -4.03536993575310
H        14.07602964550484   10.53599021378650   -5.24052059474119
H        15.16252294371496   10.01129665167959   -3.94795265824194
C        12.42432570822323    5.87745250835152    0.17768946825261
C        10.12151947843255    5.21701678791723    1.47248385348379
C        14.40243773809659    6.87160902218186    3.00338246288864
C        14.92909905302901    6.59778956252760    6.70481569792267
H        15.58295011902849    6.07574239081920    7.38929683388703
C        15.67876905318014    6.28979808510144   -5.71824115379894
C        12.07448847903709    5.80112922859496    2.42693152912733
C        17.12718496525031    8.09051543833475   -0.67092464341126
C        14.97962818288990    8.71489946176044   -6.87205574613064
H        14.70418554422519    9.65765234202062   -7.32358708445506
C        17.37968805224593    8.33000964895469   -2.89437448656827
H        17.75041782727852    8.59312572486368   -3.86718190838788
C        16.96413682292450    8.03960988330564    0.79475298170986
C        10.23104672275286    5.88043550611380    5.57367873889471
H         9.35781742244518    6.32809923794408    5.12618785678610
C        16.05389923894136    4.98450363851606   -5.08471280566445
H        16.80594440956304    5.13757742749783   -4.31139280255936
H        16.44820607484693    4.29408731083605   -5.82593118931430
H        15.18407771482323    4.52919200257896   -4.61188608962406
C        11.45936429224887    5.14323508390305    7.48582767808542
C        15.12459986270804    7.15900779315965   -3.46403683488203
C        17.96502992650304    8.62730301210092   -1.67763261977405
H        18.87840329289628    9.16821955153421   -1.52090859939003
C        13.15183317853541    8.13480852862853    6.31199328204464
H        12.41057710049313    8.82659182323121    6.68623910389033
C        15.06189444840036    6.37431418680861    5.34451408476013
C        11.45324671993684    5.58551690868007    1.16549668522707
C        16.08064911978893    5.39074326894749    4.84752024916289
H        15.74848907426956    4.90415562977529    3.93307617421709
H        16.27569859842028    4.63226050747508    5.60261372834031
H        17.02085072946445    5.89562825693064    4.62802682379658
C        13.26123861826980    7.94510145051135    4.94290548524232
C        16.65481011872117    8.18253012891363    3.01692237483321
H        16.75924899859321    8.43809879503514    4.05443951124226
C        12.37845331637955    8.73140929859477    4.01918349117789
H        12.12815153154594    9.69055483208552    4.46693527817992
H        11.44501537389343    8.19980158584504    3.83396751880605
H        12.86413743802208    8.90887379158828    3.06247900040902
C        13.86458337616041    7.71938894199018    8.68011737379510
H        12.85003534049478    8.00322013737360    8.94884111450353
H        14.53164538644682    8.53068964009396    8.97372300590707
H        14.14473895092154    6.83361070359971    9.24480355796117
C        13.97713815832222    7.47327552644977    7.20794580279083

