96
CSD_code = RERREL | q = 0 | S = 0 | Stoichiometry = C31H58ClO2P2RhS | MND = 4
Rh      -11.65372048820424    4.35686838123407    9.10200801152465
Cl      -10.08877697222169    2.80851238265602    9.46528989306207
P       -13.22346402671374    2.68853810394466    9.20189359268252
P       -10.02366552729966    5.96406195568041    9.18204757648774
S       -14.02615624996201    6.71275380247283    8.58009459005033
O       -11.64316908433992   -0.66546417461120    7.56978744287963
O        -7.49058656670507    5.67872230091794    6.78087149857610
C       -14.48546551166285    3.95230856168433   11.32214537961284
H       -15.29644146697699    4.26002751304358   10.65895722947325
H       -13.67180220799475    4.68132049685435   11.21450793876083
C       -14.98435482363240    3.96231989739247   12.76345887971329
H       -15.34655471354000    4.96095051168214   13.01740247909470
H       -15.82247405112257    3.26788572726072   12.86372746589170
C       -13.86807720079401    3.54918635730719   13.71490599202049
H       -14.23196901037948    3.54955946139559   14.74445484949678
H       -13.04763914721761    4.26689635888775   13.64772669476137
C       -13.35928092754051    2.16343401475301   13.33766366125424
H       -14.16911458241054    1.43814096939598   13.45334518807051
H       -12.54837895460370    1.86676708518146   14.00596167756504
C       -12.86186732572913    2.13901169068243   11.89513280643150
H       -12.00434327086754    2.81268173439727   11.78869131740771
H       -12.52277464736261    1.12980786295437   11.65868345389607
C       -13.95261300164330    2.57762914113983   10.91458704167283
H       -14.76880422707164    1.84458524150759   10.91980397383854
C       -15.71659961738482    1.79504426038274    8.05404380312251
H       -16.02065596363672    1.48527928592435    9.05627198361520
H       -15.26196424884186    0.93700260042402    7.55548404232122
C       -16.94792556569091    2.23597779438391    7.26243246153145
H       -17.66189361600150    1.41161202838181    7.20102672437781
H       -17.43584269321950    3.06257078975447    7.78471658741142
C       -16.55598815129935    2.68781459733298    5.85814668681252
H       -16.13285468203498    1.84118421318357    5.31188311154003
H       -17.44260878410553    3.02392527226637    5.31670763894039
C       -15.52561469994509    3.81254886262712    5.92024640963780
H       -15.96637756377769    4.68650359413009    6.40535351695161
H       -15.23117628639679    4.10416188607325    4.90999360066396
C       -14.30183415724973    3.35971701314209    6.71034561765035
H       -13.56148327028666    4.16626609291134    6.76637245626660
H       -13.83482828861301    2.51894786254613    6.19515967853435
C       -14.72021556722543    2.94807048206711    8.12320383772927
H       -15.22509296155568    3.81452679978739    8.57117783424009
C       -12.74855483524217    0.92644580924776    8.93321297878528
H       -11.95794960633240    0.70229520436420    9.65329032096257
H       -13.60105569361703    0.27246175397648    9.13262084223737
C       -12.16342665446373    0.64571969973797    7.55771987097996
H       -12.92315115376894    0.72754589350000    6.76467582659825
H       -11.36446754545052    1.37419560137103    7.34495160523906
C       -10.92336908636501   -0.98164032896205    6.40920392085007
H       -10.57036761672520   -2.00393071462486    6.52889210498532
H       -10.06508338274342   -0.31040403686179    6.27979981444232
H       -11.55764958013562   -0.91656870623548    5.51470746065862
C        -9.11259465348829    8.39256552730461    7.95632287557615
H        -8.89050130356016    8.77104477468555    8.95736740750015
H        -8.21707425739964    7.91449913822472    7.55687484150912
C        -9.51141931787997    9.54922903713400    7.04080545159112
H        -8.70308735187218   10.28264769720168    6.99737974719472
H       -10.39473032937757   10.04902182758777    7.44736339319629
C        -9.82089259151360    9.03586385298559    5.63709734785904
H       -10.12195982773438    9.86702437683953    4.99561709552379
H        -8.91749790289877    8.59254894216349    5.21226079590022
C       -10.92419567110654    7.98139369811941    5.67735464778711
H       -11.11447869008696    7.60384486552532    4.67026575867820
H       -11.84914102079804    8.43243453354663    6.04557702603277
C       -10.51519671361561    6.83611262222238    6.59725009619723
H        -9.60773013922538    6.37440639913906    6.21060177169122
H       -11.30400169143410    6.07317263795787    6.63849939026838
C       -10.24671252238602    7.37549417941500    8.00203887443678
H       -11.16542338300040    7.87142886313088    8.34412689439805
C       -10.15643948778188    5.59297530865174   11.87753539686170
H       -11.10463247926007    5.08533643492657   11.63669597627046
H        -9.35426151999965    4.85988439173344   11.76476582806412
C       -10.20078617003075    6.09401936796263   13.31598134852744
H       -10.35256915727268    5.25195405042305   13.99487999543872
H        -9.24431603926023    6.55815994118797   13.56972095806661
C       -11.31966861560384    7.11557850873058   13.48614141482804
H       -11.33835565065269    7.48563675273125   14.51328581552217
H       -12.28255986880905    6.64109915730887   13.28234337388979
C       -11.11557130404411    8.27312315629311   12.51593993555324
H       -10.17331477737227    8.77686657263173   12.74656445883213
H       -11.92041468136215    9.00241771727433   12.62895474476084
C       -11.08115194070235    7.77231525197903   11.07353544632400
H       -12.04230442780549    7.31200468497478   10.82554065460545
H       -10.92978891281852    8.62374112415984   10.40800730537369
C        -9.97317419848713    6.73913182636147   10.87744216754479
H        -8.99508873963525    7.21243983058005   11.03131686218654
C        -8.25040555846379    5.46333841116081    9.04161523651281
H        -7.60599389708186    6.33902197292185    9.14258148635343
H        -8.06572988875831    4.78793975116057    9.87952908549742
C        -7.91290654270927    4.73707204455230    7.74499750818771
H        -7.10730558424030    4.00725298529354    7.91922682712353
H        -8.79182754425376    4.18264632192130    7.37713713925668
C        -7.13472197623568    5.08628409210541    5.56031871652452
H        -6.83622195766834    5.89303956933925    4.89305280046172
H        -7.97919070005671    4.53994032352756    5.12050359149083
H        -6.29744261643431    4.38874184923404    5.68758348785340
C       -12.93559313769904    5.62642663904835    8.81570965135041

