73
CSD_code = RERXIW | q = 0 | S = 0 | Stoichiometry = C28H40Cl2FeN2 | MND = 4
Fe        2.24707125696026    5.33420946913666    3.32164604381057
Cl        1.96203736783763    5.33377017772584    1.31964044179651
Cl        4.09914504757129    5.33496856896952    4.19889020048712
N         1.14283564551363    4.12642000245175    4.15795882804280
C         0.07014324464785    4.63618607478631    4.77415393628049
C        -1.00859151847349    3.80700704757110    5.39874963735183
C         1.44628796322555    2.75285725897555    4.22045470289707
C         1.05167623849909    1.89042074666561    3.18438395320981
C         1.40426075881805    0.55071057472041    3.26023142434329
C         2.12161250983918    0.06225252512259    4.33466025587128
C         2.48307915018526    0.91135983409286    5.36333906226432
C         2.15743760971390    2.25859525491086    5.33090055522319
C         0.21729332786498    2.38397509262223    2.02683691188834
C         0.90252726926726    2.09493964441853    0.69056808286482
C        -1.17389552432769    1.74496889863539    2.06588183807945
C         2.53133532096071    3.14792509914469    6.49349136557258
C         4.03059672109355    3.09156442416154    6.78845653820500
C         1.73199764739214    2.75316922654772    7.73916199167693
H        -0.74952234035594    2.75219577872334    5.35770658352542
H        -1.16191888594892    4.09797982051231    6.43716637738856
H        -1.94880024190001    3.96116166879459    4.86887644246315
H         1.10716060784993   -0.12270690391834    2.47117459818619
H         2.38913802552622   -0.98320539867895    4.37691900127822
H         3.02471231718904    0.51655876044110    6.20887333053729
H         0.10013670667182    3.46810688874312    2.11784000170481
H         0.33202748979287    2.54069417196893   -0.12047797288309
H         1.90102885028626    2.52356681979719    0.67919473803833
H         0.98063904802641    1.02571890938501    0.50984028367285
H        -1.78707352009041    2.14118565403239    1.25982238837786
H        -1.10738705005025    0.66594267088763    1.94767037263755
H        -1.66845846670140    1.95515194503149    3.01150041965926
H         2.28388830855079    4.18183412378859    6.23442405271792
H         4.27165714891873    3.78878951147614    7.58736835757842
H         4.33724320101515    2.09616329854444    7.09896106303080
H         4.59674579832465    3.37753617958938    5.90760549885601
H         1.95950407917945    3.43346857019621    8.55682328172572
H         0.66324053835649    2.79204986906042    7.54488274376265
H         1.98513137332893    1.74320016511475    8.05317279844534
N         1.14266781188948    6.54193388161180    4.15789207601418
C         0.07002537277824    6.03204434214993    4.77407385115628
C        -1.00899391986297    6.86112365379851    5.39830927962112
C         1.44606428712552    7.91549895681826    4.22057144516879
C         1.05212584595896    8.77794004098007    3.18425534131351
C         1.40473694610242   10.11763493919654    3.26028066599759
C         2.12146574829228   10.60607196857887    4.33513261300916
C         2.48224427497994    9.75696517784231    5.36405498886174
C         2.15654716419571    8.40974928362440    5.33145623940546
C         0.21840147388350    8.28439441823135    2.02623302973896
C         0.90446339043845    8.57330485073522    0.69036407611518
C        -1.17276807931723    8.92348746152724    2.06444217319726
C         2.52969734822502    7.52045606770992    6.49431801658528
C         4.02882682658057    7.57655931399090    6.79001393500637
C         1.72985757038454    7.91549497541216    7.73958063520658
H        -0.75010934365753    7.91597560370958    5.35715275153485
H        -1.16252592138383    6.57027940083340    6.43672829526501
H        -1.94904683249666    6.70672516624810    4.86822657697981
H         1.10815721037765   10.79104881651625    2.47102433063702
H         2.38904176070755   11.65151146376450    4.37752869168672
H         3.02338615452326   10.15175489335885    6.20990960128273
H         0.10110391053304    7.20027702820625    2.11722321466990
H         0.33444503967317    8.12752426142689   -0.12100587526227
H         1.90295310494741    8.14462641555926    0.67963881082421
H         0.98274791949881    9.64250945559106    0.50961498973268
H        -1.78549431075617    8.52730403560429    1.25802330107752
H        -1.10613055989162   10.00251019552416    1.94627458543986
H        -1.66789488815322    8.71332340619313    3.00977209263726
H         2.28216493909305    6.48656996754863    6.23523708976163
H         4.26933599625301    6.87946294049621    7.58920675006066
H         4.33551832947688    8.57196477539794    7.10045950832640
H         4.59535375759222    7.29028749040119    5.90950386242365
H         1.95675563059198    7.23515354405742    8.55737717445687
H         0.66118347054484    7.87694577204856    7.54478888105816
H         1.98314954631875    8.92539361115466    8.05368687044279

