86
CSD_code = RERYOD | q = 1 | S = 0 | Stoichiometry = C28H53IrNOP2(1+) | MND = 6
Ir        2.86585956246832    8.72771588394192    3.63042920141389
P         4.04727312599930   10.74082598234702    3.23839108101190
P         1.06892282148015    7.19155984367341    3.87403847406122
O         3.50287970178572    7.93827149406763    1.65554902526467
N         1.27003087857398    9.92892514736353    2.78403070362522
H         2.59726733077851    9.15588247392519    5.05411614106970
C         3.01584490545286   11.28577594375195    1.79359236899485
H         3.14371419380021   12.34620225090261    1.56770284431482
H         3.38162479209016   10.70988943284585    0.93694782797037
C         1.57112374346036   10.95747241983244    1.99083918999949
C         0.58007594904729   11.69515066986235    1.35426821635282
H         0.84883196927011   12.51774074452884    0.71060368895733
C        -0.74715270348339   11.36030340016451    1.55932395118503
H        -1.53474474653549   11.91713667492637    1.07685170809235
C        -1.04505888880389   10.30257945593141    2.40149277886295
H        -2.06845572161087   10.02346995001361    2.59578953915152
C        -0.00575164053603    9.60309973792411    3.00182894554591
C        -0.26888434382923    8.48292186636867    3.95300369571944
H        -1.26579994895625    8.06775644662237    3.80165802399203
H        -0.21433145853799    8.88905922283896    4.96823120270471
C         3.76232860110969   12.10019107140731    4.53938056961175
C         4.37470360595060   11.62415822677813    5.85847552620483
H         4.02726060235777   12.25665691222786    6.67265219466367
H         5.45802962770669   11.67164119150247    5.84344747505353
H         4.07367295080033   10.59930974797646    6.06704389931659
C         4.31515793393450   13.47680251619149    4.17583957349850
H         4.01181808799432   14.18477095948628    4.94602818899668
H         3.91575183484167   13.83735260092520    3.22990494490192
H         5.39984770926959   13.48902842810741    4.13971950739783
C         2.25123383330496   12.24631947050108    4.73901455907948
H         1.79587411476495   11.29045828933051    4.98607479853004
H         1.76466705399471   12.65776619388895    3.85712185178205
H         2.06505451624324   12.92867765140236    5.56635591828216
C         5.79647644986311   10.91616667270507    2.50231189528033
C         5.97384433149776   12.12989116155278    1.58698389386397
H         7.02525799749159   12.20037202396341    1.31094084134997
H         5.69878942071102   13.06373650656056    2.06187769336069
H         5.40338909220925   12.02319543366273    0.66732462885070
C         6.82389036357644   10.94688951731708    3.63438949401991
H         6.60764843786499   10.17608457298369    4.37244721413854
H         6.84891063923570   11.91231385396209    4.13033982871889
H         7.81831593614033   10.76104285354399    3.23095317578319
C         6.06411419069245    9.66515262340421    1.66212142799610
H         7.02437852611530    9.76565864579966    1.15789918631073
H         5.30293695648671    9.52441526611396    0.89750571301155
H         6.10489706126861    8.78096822102800    2.29152090423465
C         0.47822626364565    6.15909331066186    2.37831285088213
C        -0.86470563562729    5.45977831636655    2.58279885992350
H        -1.63691972366520    6.13678340549727    2.93906174858177
H        -0.77654160947652    4.62122957440651    3.26772633578744
H        -1.19972796288882    5.06282929514557    1.62488754015757
C         1.52371797860395    5.10447539626090    2.00718777625566
H         1.78290882925055    4.46571002251318    2.84568288349668
H         2.42613608181419    5.57455684583929    1.63122273717343
H         1.12851584056637    4.46931983863167    1.21509017874015
C         0.35425062612967    7.12746757411022    1.19738175422538
H         0.21445635138171    6.56085307260074    0.27733597779855
H         1.25473245363803    7.72737777509802    1.08152296269410
H        -0.49941400073404    7.79235202525986    1.30658637953754
C         0.75302311801981    6.25961051472261    5.50489657079857
C        -0.72188102946534    6.08396354586804    5.86883474200973
H        -1.27738379248117    5.51889580146546    5.13012996113235
H        -1.21420798785777    7.03961589032998    6.02606625222389
H        -0.77711924104418    5.53336567125169    6.80678613414153
C         1.44234028104270    4.89658744037818    5.45039665564229
H         1.46714807049923    4.45990997994696    6.44719303433082
H         2.47062722371989    5.00180915024332    5.10847861512282
H         0.91318802278786    4.20193113693198    4.80325920427221
C         1.41212370859957    7.07960185390355    6.61642858177883
H         1.25365457539679    6.58384562336815    7.57191941755386
H         0.98798007694373    8.07813795189538    6.68689065600011
H         2.48102803630416    7.17537010836815    6.45179846146628
C         4.47926681944153    7.50676832522210    4.22065302171811
H         5.39213947906880    8.09793093818219    4.34490452692644
H         4.35744147171224    6.95703640478025    5.15683739813314
C         4.71191898762713    6.48560634977989    3.09171576583958
H         5.74461409570847    6.12684940722912    3.06633161239691
H         4.07819014511303    5.60938690615518    3.26355998447254
C         4.31412668914825    7.02798569661927    1.75168493126481
C         4.93570829928918    6.39692547323871    0.53619237392603
H         4.94651801639761    5.31225458835860    0.66718721675166
H         5.98089574740708    6.71988851296009    0.50461754244090
C         4.23728244093042    6.77855988689526   -0.76360058893486
H         3.20338851228797    6.44074163680551   -0.75800015263083
H         4.74358749990122    6.32275378151173   -1.60923954203039
H         4.24284584352214    7.85738131703242   -0.90018387459432

