101
CSD_code = RESBUP | q = 0 | S = 0 | Stoichiometry = C32H61N5NiP2 | MND = 4
C         9.23081914894453    1.64865798575042   11.66200663024914
C        10.10675960152193    0.60180502936162   11.00800200865926
C        11.14074818075654    1.20947157321767   10.12124895461070
H        11.72761821579382    0.51105689708198    9.53782682930950
C        11.38225021464234    2.51803499112437   10.05289283271283
C        10.58201515100379    3.43293487692041   10.86824396874611
C        10.81524175703756   -0.18608935794381   12.13846648538467
H        10.04263148997073   -0.62228870491200   12.77444411065176
H        11.38849029089196   -1.00022708910614   11.68859147769605
C        11.74340086453602    0.68355352918264   12.97771677374645
H        12.55192134549408    1.08625000143782   12.37032048986844
H        12.17830230095251    0.09689428019131   13.78410149903407
H        11.19924926155757    1.51640199448327   13.41777901219962
C         9.23287944616941   -0.37586356185760   10.19669643847850
H         9.86293087378368   -1.19215169396784    9.83521399142182
H         8.47959347945924   -0.79408703101239   10.86577763928859
C         8.55044136235895    0.30070448650758    9.01468197187952
H         7.91845154606984    1.11714495426587    9.35665806820818
H         7.92748840497197   -0.41236188939977    8.47938542060169
H         9.28548273424077    0.70668428976557    8.32232249498057
C        12.43072313342338    3.11305138514947    9.15923319606083
H        13.13348306011566    2.33352573014003    8.85697100158634
H        12.97267637794832    3.88225265839925    9.71168410759513
C        11.80037487851368    3.74482242749027    7.91852406384399
H        11.23843815769538    3.00229366645064    7.35510489000974
H        12.57066317181432    4.16053351425901    7.27335036561359
H        11.12484043350612    4.54399435108681    8.21145674029666
C         7.22268550917586    1.70708403276344   14.85230301884440
C         8.68537545397916    1.66780414785068   15.30154996282915
H         8.76007759146897    1.38706018506678   16.35135429232927
H         9.13815826079511    2.65457833529250   15.17761436310558
H         9.24635217980885    0.94756442755199   14.70978295990118
C         6.64056599147456    0.29935123511409   14.86278109384108
H         6.85633638772346   -0.18430663043562   15.81534792063829
H         7.08105428597453   -0.29283975917416   14.06360659576977
H         5.56130998433100    0.32079476917897   14.73495460885327
C         6.45101769435813    2.64492939591612   15.77590783104314
H         5.38224691018552    2.60166429954899   15.59179391044976
H         6.77626873258422    3.67470511677482   15.63896280710847
H         6.62377347247358    2.36344057065603   16.81455682387527
C         5.67727296439258    2.33627059575401   12.18285532133676
C         5.28467807780796    0.92162800482628   11.77103503278431
H         4.93358386086720    0.34159696812344   12.61913713350814
H         6.13510981191229    0.40682545315650   11.33020024779636
H         4.48318725423066    0.96374548807972   11.03366298351227
C         5.96957809490948    3.17399160471557   10.93298688906974
H         5.07819083729578    3.28196252807105   10.31577023775007
H         6.74801952043232    2.70619172967608   10.32887901478609
H         6.30908479466006    4.17384096363419   11.23356688038035
C         4.57070222450744    3.01652964082268   12.98155706212101
H         4.93097466774873    3.95557400035240   13.39954977971359
H         4.21880080390623    2.37889511477870   13.78874035892554
H         3.72234676492920    3.23002826534078   12.33145942371162
C        11.18770376134049    6.16104892017418   13.18386944261226
C        11.32230556987381    4.87667926005652   14.00979290858417
H        11.90650781955473    5.04879458580857   14.91316387910568
H        11.81153665063681    4.09566021524662   13.42744824710709
H        10.32336806919421    4.52344612680116   14.30483032728494
C        12.54396361653760    6.55299815083477   12.61165119902822
H        12.51607720921706    7.54382001465528   12.16763508252631
H        12.84997377828770    5.83956827117822   11.84976074418717
H        13.29134218750069    6.55797289476799   13.40491588687923
C        10.60560255959372    7.25856214389064   14.06622216388892
H         9.57973566202751    7.01214973130535   14.33619540502131
H        10.61626236298808    8.22035231380731   13.55973263549873
H        11.19090958937776    7.35576489989381   14.98055378282107
C         9.44356736546254    7.01652164766442   10.68147320251168
C        10.64031382454627    7.65419437767266    9.98830249459485
H        11.34419942186773    6.88617536991702    9.67558859017194
H        11.15047839197637    8.35166290835235   10.64786708116208
H        10.31011226305320    8.20447935497583    9.10751747612731
C         8.57968371929773    8.04762720536199   11.40083086459055
H         8.07227427909999    8.68147355952974   10.67401465846133
H         9.17451636339686    8.68799224833821   12.04643770885572
H         7.82755007445960    7.54127319398855   12.00543218519152
C         8.57314816526298    6.27265104525281    9.66458841250381
H         8.10772345874119    6.96808848198275    8.96751448637671
H         7.78491180315967    5.72522181003422   10.18932005577872
H         9.16872603708544    5.55950161236669    9.09678308336516
C         6.90140969404833    5.92656164475265   14.35257351318625
C         6.09369157260825    7.59775787196259   15.92863869621537
C         5.62708900340408    7.35241188406566   17.36742657621724
H         4.72768013112952    6.74206510713900   17.36380154922231
H         5.41488094664130    8.29537073013346   17.86514230452010
H         6.39733427737915    6.82389006512629   17.92421866583055
C         7.38969127326361    8.42105444026317   15.92947095700001
H         8.17947232277642    7.87880966885766   16.44568418552716
H         7.23318940258750    9.37274197811286   16.43236959521693
H         7.71122223733301    8.61356984399090   14.90753926197247
C         5.00557120400377    8.35299317144113   15.14981892054976
H         5.32475765922158    8.51154617223549   14.12155287197087
H         4.80854708574308    9.31774595258770   15.61175274594218
H         4.08630995052093    7.77218051305902   15.13807896300125
N         9.53506369820974    2.95824608720703   11.58938222806232
N         8.20789556778290    1.22434585581751   12.33908454854569
N        10.89305316928108    4.69604058652903   10.88058064320538
N         7.32410973198931    5.39699851853886   13.37044431051331
N         6.28682398480723    6.30800946766922   15.33711374487724
Ni        8.44924422245990    4.21253058093279   12.58424561096198
P         7.31811483409253    2.40996541664848   13.11063824031697
P         9.94148701176609    5.64687432209815   11.86528184619290

