86
CSD_code = RESBID | q = 0 | S = 0 | Stoichiometry = C27H52IN3NiP2 | MND = 4
C        12.55350788697955    4.14759141846441    3.10492555587975
C        12.68626061669754    2.64205581860388    3.08485205709846
C        13.86465484865581    2.18745505128681    2.29012768971593
H        13.93794029373412    1.11807859409774    2.15427123085445
C        14.78729172511548    3.01245464486114    1.79812396457833
C        14.64295146977563    4.45208867657395    2.03174877704619
C        11.40067971799542    2.01617355389647    2.50698425942232
H        11.45826772360811    0.93098298572335    2.62093384731973
H        10.55233245015453    2.37596535225756    3.09158254499365
C        11.19640118299102    2.36057284439965    1.03680042334790
H        11.14289238479299    3.43859287036285    0.89900700650972
H        10.26824231014587    1.92577313964296    0.67277973754393
H        12.01716101072944    1.98144243244481    0.43061417445835
C        12.85385167139050    2.17047981772246    4.55087699026070
H        11.98031698540057    2.50739048261424    5.11303555667318
H        12.86750950686916    1.07795212722401    4.56403634909243
C        14.12400919198790    2.69949888378104    5.20602657511447
H        15.00938421157191    2.33703013720129    4.68645981823451
H        14.17532712775558    2.37130653414022    6.24196219738242
H        14.14319867821347    3.78751487394082    5.19521248835783
C        15.99775482805481    2.60109413322987    1.01025190212186
H        16.88235597765016    2.97336257122429    1.53511262164036
H        15.96617504759850    3.12396547179610    0.04970361926569
C        16.13352491162169    1.10398414512958    0.77366024120497
H        16.21016916438037    0.56583394368843    1.71611510910943
H        17.03325744249166    0.90606501097288    0.19589775246791
H        15.28151412625595    0.71877218446651    0.21733554029048
C        10.93138264518990    6.56351255304897    5.49040822875198
C        12.14300560770722    6.02308565465773    6.25512119785615
H        12.04681136299125    6.22585299362664    7.32073259085552
H        13.05876945885785    6.50563984709674    5.90123105130210
H        12.23790812002635    4.94800145111712    6.11441396400091
C        10.73700431564904    8.03102036008071    5.85641285701255
H         9.90537813919111    8.47852175849911    5.32173683987687
H        11.63011601269930    8.61224173043717    5.64180267359704
H        10.53297782373703    8.10903814369157    6.92420155479873
C         9.68933501118904    5.74928110976350    5.83539669094667
H         9.60137490578825    5.65583623882479    6.91760698251232
H         9.75738036012746    4.75226719445815    5.40529429104989
H         8.78947164012504    6.23622013566439    5.46739013659984
C         9.98606113174831    6.65220794513927    2.47655057161923
C         8.92908002766571    5.55162318260010    2.49511688152678
H         8.31938208899600    5.59980251154967    3.39235978175488
H         9.39299906921962    4.56949645268790    2.44744032444035
H         8.27316279414160    5.66685604544728    1.63231311344537
C        10.69999680917635    6.64782585792877    1.11950221124153
H        10.00697720273559    6.88029937354198    0.31147415488039
H        11.13893606026012    5.66890010832084    0.91689197341672
H        11.49902694156917    7.39854700051325    1.10416154866639
C         9.34043707062236    8.01532886853478    2.70216726318948
H         8.70825048940994    8.26256286266195    1.84930110735276
H        10.08874229686420    8.79834963725824    2.80516829135324
H         8.71108572380207    8.00803076894394    3.58898604683360
C        16.73728691775083    7.15231467869021    3.23363062848803
C        16.12943278703534    6.52210392580251    4.49307328627663
H        16.03286831031836    5.44167218708532    4.37599275067381
H        15.13164074406627    6.94641400931250    4.68412195174731
H        16.74802166965289    6.71675476695005    5.36830080460444
C        18.02716984042435    6.42977986762797    2.85935442914255
H        18.56520696451646    6.96703972467069    2.08266749019778
H        17.81504535657304    5.42423458894170    2.50239980847715
H        18.67486882285246    6.36112315881965    3.73312185632996
C        17.00777641814966    8.63019282658803    3.49307083520569
H        17.63411716628441    8.73191520499956    4.37951429520234
H        16.08682996236852    9.18179976094896    3.66561342072882
H        17.53340378667782    9.08879343995219    2.66050454405558
C        15.71572766991457    7.59264611999244    0.25611935033640
C        16.88236635091084    6.88358460394581   -0.42340354051936
H        16.90688649080211    7.15398703366274   -1.47866178692106
H        16.77610186969588    5.80473837743168   -0.34131550659991
H        17.83065267482772    7.17277646066508    0.02149654271369
C        14.41298054137761    7.29691655687290   -0.49412756715290
H        13.57521057040123    7.79886683122252   -0.00419242431081
H        14.21580190832524    6.22383237724073   -0.51429929835987
H        14.46561841679697    7.65410497994875   -1.52161531128378
C        15.94808260010501    9.09927206054595    0.28781676758828
H        16.94266245646327    9.33780295041106    0.65476585956832
H        15.21581949676740    9.60469659909473    0.91304153944641
H        15.86245107365038    9.49901660618117   -0.72234000036139
I        13.13879815367905    9.26409819446452    3.10842777584760
N        13.53305962141252    4.93746464048256    2.63512957258444
N        11.48102273199813    4.64303125172836    3.63715745939639
N        15.59237590529449    5.24216877001347    1.63338558816810
Ni       13.36200195120732    6.87080087735498    2.85465917047410
P        11.40061544818174    6.30673958089461    3.68461606527762
P        15.37490971940749    6.85958950161082    1.95655328411083

