87
CSD_code = RESCEA | q = 0 | S = 0 | Stoichiometry = C28H52N4NiP2 | MND = 4
C        14.43712292998141    3.93624546846982    4.58284152990423
C        14.34277953235799    2.42756583149345    4.54282604191785
C        13.13256955842837    1.92398808168614    5.25669009353194
H        13.05575256945748    0.84714958456380    5.34308872312400
C        12.17128863571515    2.70989882624349    5.74151347828549
C        12.30254675266996    4.16003887907399    5.59781958890758
C        15.61155409455611    1.81268302635500    5.16781094731339
H        15.58137509955716    0.72919136912048    5.02975532492365
H        16.47827587859189    2.20250741878839    4.63160474790131
C        15.73923646677867    2.13220302447761    6.65195777101599
H        15.77465607488847    3.20810774530468    6.80932197619933
H        16.65208337090074    1.69923715979500    7.05485785487877
H        14.89252301549584    1.73496732577730    7.20880384470649
C        14.26184697093999    2.00040607221767    3.05629912163822
H        15.14868734214562    2.38644442602936    2.54978662659989
H        14.28684266403505    0.90924170079579    3.00535617709875
C        13.00593236046062    2.51109034818931    2.35998604590424
H        12.11135626796540    2.08799593629457    2.81355740911633
H        13.02208775706042    2.23370097657813    1.30812644740849
H        12.94048923771446    3.59530619622791    2.42379447072238
C        10.96193086703493    2.18214390576155    6.45571501466912
H        10.08013442758105    2.72367122941482    6.10873647961590
H        10.83868426376065    1.12185122904621    6.22355197531546
C        11.09264259470868    2.36407900786198    7.96768077017616
H        11.97822130402149    1.85219530396051    8.33913258173763
H        10.21990431964455    1.95828068104146    8.47372996801804
H        11.17315723084002    3.42050912381430    8.20968629746094
C        15.99995788603064    6.50655628283397    2.31588563105842
C        14.84980816729699    5.88688644375191    1.51833334259332
H        14.92922887303148    6.14334614388838    0.46287147502222
H        13.89345123106974    6.26390628526548    1.89077703887949
H        14.86117374459505    4.80322437690869    1.61307154344885
C        16.02166945432149    8.01000457655880    2.05729674421984
H        16.03412609852754    8.19998039348644    0.98447556230117
H        16.89763762838146    8.48154396713644    2.49163705216733
H        15.13495536018139    8.48149317513546    2.48046373776264
C        17.31583400243094    5.84398399045854    1.92966622135577
H        17.33513503277136    4.81683977745405    2.28841610175811
H        18.16326635431739    6.38191684717170    2.34743615507248
H        17.42371769492150    5.83655687518684    0.84526989527986
C        16.91836545172563    6.53032222770509    5.32962021324194
C        17.43820785334298    7.95211699170715    5.14851999425160
H        16.60784527731628    8.64990989834853    5.04550005232852
H        18.07869234301464    8.02849321979049    4.27336006657996
H        18.02602011321951    8.24385874230747    6.01861771044505
C        16.19321287073363    6.43705477227325    6.67686416470039
H        16.85985212281937    6.69058897270200    7.50055683763637
H        15.81605254275936    5.42700148965595    6.84349758431901
H        15.34709991449933    7.13837334718884    6.69001694203040
C        18.05105615599385    5.51081931999502    5.28486799687490
H        18.69260992085500    5.63715327585448    6.15675552473478
H        18.66086677415743    5.63208068577815    4.39459418347452
H        17.65095308027756    4.49947666655904    5.29201627651585
C        10.24907599078052    6.96348992276029    4.50391713244168
C         8.92419655184286    6.25947248897161    4.77180446713674
H         8.30001916700374    6.29848605867973    3.87936290061495
H         8.38109812765589    6.73255857750658    5.58490598894374
H         9.09598987275751    5.21681436218385    5.03071034777563
C        10.06635219390844    8.47080899053628    4.36567266838377
H         9.53372389594569    8.69697803258778    3.44235807644084
H        11.03372288677760    8.97168882773651    4.33683031531274
H         9.48642944446062    8.87337002188532    5.19219398028619
C        10.87795654504857    6.41230861741271    3.21845305132527
H        10.95461170146138    5.32510782907316    3.26383406929018
H        11.88629727050105    6.83660947581677    3.08878875798442
H        10.28318042800310    6.67705321149486    2.34505852839348
C        11.21756523492658    7.21243725992813    7.50947886456332
C         9.88113144431616    6.71421397581331    8.04466882783360
H         9.84079452606770    6.84805645958786    9.12542098127575
H         9.75573989440005    5.65717621269965    7.81938465598737
H         9.05395376726076    7.26743751414785    7.60679420966652
C        11.31029837760393    8.73462948453429    7.54138698788318
H        11.38235102236934    9.07951506073531    8.57233437333289
H        10.43578446620017    9.19759005340637    7.09355756515035
H        12.19383692252833    9.07444334058257    7.00143868342081
C        12.36936285345793    6.62969331288583    8.33369194793887
H        13.32526584667237    6.92412554006034    7.89245305277295
H        12.31858075428362    5.54167792332855    8.35455380721319
H        12.33734943045906    6.99629246165655    9.35875210890235
C        13.70902666353863    8.40065925253106    4.79915983545536
N        13.42705121532389    4.68552612444928    5.05467532176216
N        15.51568377443733    4.48073286907992    4.10198274289676
N        11.33227199429137    4.92746202664581    6.00370349581123
N        13.80291670328583    9.54773603407681    4.73021973917702
Ni       13.57249326104751    6.61464651226374    4.92096974327059
P        15.54050653541858    6.14787147732528    4.10100264223172
P        11.56970370008214    6.56094206412630    5.78526077298701

