103
CSD_code = RESCAT | q = 0 | S = 0 | Stoichiometry = C58H34N10Ni | MND = 6
Ni       14.04949335364972    1.18707821009370   12.65087484323126
N        13.49961531900697    0.57818600559087   10.86240449408041
N        14.27070745893471   -0.72708574197343   13.23192977900496
C        13.16374053708737    1.35469944886312    9.79672978705637
C        12.82483573884746    0.53996848325313    8.65920464957528
C        12.94058918198336   -0.74262036503624    9.05714775224725
C        13.37534088824819   -0.70705035337139   10.42916791780991
C        13.63320438797694   -1.86311767096153   11.15187020376506
C        14.09240270579028   -1.83313485891750   12.46640736454076
C        14.45807351678504   -3.01819266542032   13.19445739048287
C        14.84026619951416   -2.58912610700818   14.45272358667588
C        14.69756008283303   -1.15825102832038   14.44479179581201
C        13.11542918357102    2.73901775523925    9.75022189151391
C        14.50885722259680   -4.34361209862866   12.74851792695634
N        14.60740163603204   -5.44942906459229   12.45368174198915
C        15.32119621897612   -3.42084871974129   15.47026002747955
N        15.72275208030500   -4.17402541248321   16.23891572756409
C        13.40013757634967   -3.17489769072303   10.50974281409963
C        14.28431864095941   -3.66846889492042    9.55737994100345
C        14.06033423457848   -4.90239955954067    8.97636967270707
C        12.94683053239380   -5.64539952569604    9.32952170683226
C        12.05364505574699   -5.15075953659197   10.26386688839207
C        12.27884440709168   -3.92172331579537   10.85466577485309
C        12.75642551551356    3.39979691945840    8.47656042520409
C        13.75286455985321    3.96668080546570    7.68959380023568
C        13.42665121590231    4.59340358733566    6.50153501668632
C        12.10601645856188    4.66222309206998    6.09313755946698
C        11.11159413793628    4.09066992602772    6.86844963460088
C        11.43368659310918    3.45495000533583    8.05286212188346
N        16.35347599102090    1.23280378225893   11.90997446111860
C        16.84112073752269    0.29013837163209   11.11193381241294
C        18.13180204940074    0.31123791569480   10.60787907822595
C        18.96083420558568    1.36709921900685   10.94917440411596
C        18.45970086447423    2.35299901178655   11.78337128557108
C        17.15500964646781    2.24018984094202   12.23632817161600
H        12.53438646631075    0.92261997395553    7.70068808844809
H        12.76226251327901   -1.63928518478338    8.49682237573371
H        15.15436654658587   -3.08663602055480    9.28696908430104
H        14.75931237750375   -5.28635099263925    8.24836110009616
H        12.77660112449204   -6.61086080728312    8.87800298311351
H        11.18320776767151   -5.72667491866898   10.54006325806743
H        11.58715547748588   -3.53606579295465   11.59096964346342
H        14.78206261465550    3.91482284727833    8.01662131992885
H        14.20482126688817    5.03565762500380    5.89774599304875
H        11.85124711801806    5.16296636575115    5.17148674730066
H        10.08050811263652    4.14337776247701    6.55218107888603
H        10.66157100194153    3.01098228610006    8.66519466137565
H        16.16993729074952   -0.52100880570241   10.86197805696620
H        18.47770249296109   -0.48197357374274    9.96338326765171
H        19.97300277411414    1.41964951618704   10.57553918253062
H        19.06833288477819    3.19365284475967   12.07894461479782
H        16.73614095495082    2.99109060370607   12.89336731681261
N        14.59973924246699    1.79597781330003   14.43918231676476
C        14.93652615991102    1.01949173903279   15.50457756018798
C        15.27659365134232    1.83423536440382   16.64174732759545
C        15.16026958524579    3.11681550512526   16.24396098467022
C        14.72416913731203    3.08122322050912   14.87237162286698
C        14.46507329067034    4.23724760307877   14.15006607604336
C        14.00520527372726    4.20719065826108   12.83576651524423
N        13.82774760622882    3.10118377696605   12.06998503057211
N        11.74541093783878    1.14103130475590   13.39164398898890
C        11.25828102122311    2.08210978709421   14.19185847012388
C         9.96778988461332    2.06026478129054   14.69637852634706
C         9.13824405270347    1.00551058710277   14.35291479368001
C         9.63875587162753    0.02138003592053   13.51625919119850
C        10.94341355045902    0.13466575743535   13.06329777058988
H        11.36176664209306   -0.61497381837306   12.40448666099328
H         9.02985340788365   -0.81851597748124   13.21914618622710
H         8.12614768021630    0.95248069856997   14.72669594136289
H         9.62230465995571    2.85227937877597   15.34255653603883
H        11.92975357484758    2.89252202220838   14.44342384659472
C        13.40065082634614    3.53233225326736   10.85719703611669
C        13.25661700373380    4.96308446314728   10.84969556895466
C        13.63847450371671    5.39211588278581   12.10807483080838
C        13.58672186393881    6.71739772906951   12.55430343637591
N        13.48639390587157    7.82285553509134   12.84998326006873
C        12.77482181032286    5.79465152019159    9.83242637145466
N        12.37204610770943    6.54749873590772    9.06394542368278
C        14.69776594386696    5.54905730999780   14.79224956420423
C        13.81417299365112    6.04183212772475   15.74556515222277
C        14.03792782145322    7.27576895610119   16.32665979642590
C        15.15064121477842    8.01955557706764   15.97266375530064
C        16.04325184748360    7.52572335025191   15.03733635584106
C        15.81824706195311    6.29670340317821   14.44643073586457
H        16.50947784104666    5.91165684010057   13.70937523296935
H        16.91308423218697    8.10224044212872   14.76047773718061
H        15.32070846393442    8.98499476900500   16.42429366459820
H        13.33939638824765    7.65910479549583   17.05542516279723
H        12.94474344060184    5.45939551487366   16.01666895518285
H        15.33902736473353    4.01349594801963   16.80412938065120
H        15.56807112201907    1.45157701500238   17.59995109489558
C        14.98405934981722   -0.36484335166787   15.55135067361658
C        15.34312909660098   -1.02552317357792   16.82504737537767
C        14.34636433744281   -1.59053087832268   17.61296015542579
C        14.67241148137228   -2.21707337005653   18.80115384546367
C        15.99320849284068   -2.28756381347118   19.20875340634428
C        16.98796186915033   -1.71787465962664   18.43249471750979
C        16.66604886582958   -1.08234837467899   17.24792151855258
H        17.43842943992139   -0.63981819841371   16.63487953670717
H        18.01916850338581   -1.77188484746983   18.74815682241972
H        16.24783315800007   -2.78814771081514   20.13053077819452
H        13.89398006279981   -2.65786788860481   19.40567444201965
H        13.31704143524802   -1.53734963889814   17.28653264534826

