64
CSD_code = RESKUW | q = 0 | S = 0 | Stoichiometry = C27H30Br3N2NiP | MND = 4
Br       14.88000307827796    6.26603908091143   22.92999353297077
Br       11.99033647782479    3.71560827342874   22.77855314918809
Br       14.08219708945135    3.66303448108717   26.25790182886815
Ni       13.75102180614955    4.67719776889746   24.22244514375899
P        12.65341021238502    6.17723296025483   25.18557291661716
N        12.48381846469992    5.51749516750928   19.74505456191967
C        13.65503811029211    7.19811908372968   26.30531644092495
C        14.07026015211045    2.55231139019842   18.20820227989423
H        14.93176193247079    1.91861390891359   18.35733641892810
N        11.45193727810923    6.88375315101746   21.08352829325107
C        10.45320667989152    7.44116523758868   21.96551295649823
H         9.46829047762107    7.16173464577384   21.58303251315621
H        10.55029444004302    8.52920757271852   21.93865039119401
C        11.40970593415178    5.67673043896085   20.51565201162859
H        10.63927387955043    4.94711365148647   20.65337675636726
C        13.86221865696370    3.61052640629097   19.08269118603332
C        11.21439658043037    5.71636171400065   26.20541291062821
C        15.25841853212754    8.67193555888234   28.02401028456585
H        15.88772752991345    9.24210366125771   28.69137449381105
C        11.84736882983904    4.17368887862994   17.83355492407732
C        13.20276435777815    2.28372884953560   17.16191216129241
C        13.24447136121643    6.64532046020659   19.83900902710696
H        14.17337114431348    6.76247432251004   19.32327796417464
C        12.73651539973386    4.41211814035194   18.88451383128844
C        10.62532698061174    6.69093408527867   27.00645291428742
H        11.04587501551680    7.68721022195792   27.04137036664422
C        10.59269224191629    6.92975974225833   23.40373627174128
H         9.70176481931135    7.21754279845185   23.96190810460748
H        10.61597953337628    5.83790751896811   23.36825594253515
C        11.84588622974535    7.46362196243964   24.09878630196118
H        11.60960097581465    8.32437171942731   24.72927977352343
H        12.58704767749730    7.77413208359298   23.36115298999184
C         8.99082699730309    5.09773284761934   27.74377614847429
H         8.12943125002182    4.85715699399999   28.34919725704864
C        15.16725592751776    9.02434380031612   26.68802128607800
H        15.72607219044154    9.86728886906747   26.30894409848055
C        12.09843731941178    3.10724875988074   16.98616878073059
H        11.41754316999652    2.91225353129877   16.17066498692311
C         9.52035319288122    6.37877856430669   27.77406753275298
H         9.07357218867209    7.13573523907753   28.40243145015661
C        14.80099315127893    3.84205701236504   20.21727694491629
H        15.56917013640822    3.07458618007065   20.23998561791536
H        14.25404883523120    3.80761886469064   21.15691194195061
H        15.28514040649026    4.81480773888026   20.16298807105042
C        12.60076546659249    7.49776802625804   20.67717237484939
H        12.88809025372077    8.47419556446730   21.00522327315289
C        13.75867454407298    6.83894712305010   27.64622477070877
H        13.22412333805246    5.97438229542265   28.01445900854709
C        10.67995147534864    4.43650327157336   26.17688862464628
H        11.13396285243699    3.66962175480671   25.56609784317350
C        14.37185512651601    8.29009309226050   25.82686904834877
H        14.33166811663352    8.55404215158917   24.78018872049315
C         9.57019637186716    4.12865197792263   26.94431388132463
H         9.16421401790978    3.12883277712122   26.91955901937824
C        14.55402362260632    7.57813404136935   28.50088193197014
H        14.63200377825632    7.29163001543148   29.53908396346585
C        10.64529864444113    5.04210905321487   17.60283769169702
H         9.82265482508121    4.73321415452263   18.24663771913828
H        10.31337170535239    4.94788321521823   16.57225162687381
H        10.86184494809151    6.09055447847900   17.80028744967260
C        13.44790898865592    1.14334353825910   16.22422019316295
H        13.74729144072438    1.52065415877096   15.24655544815047
H        12.54069997065925    0.55742581309634   16.09115748508707
H        14.23447386821098    0.49361015939433   16.59752716623380

