52
CSD_code = RESNEK | q = 1 | S = 0 | Stoichiometry = C22H24N5Pt(1+) | MND = 4
Pt        5.41666717460932    3.69577971888695    4.02782244757009
N         5.42640510542289    1.44205521690042    6.02617859723103
N         7.20925658789123    2.63647596882030    6.16776765669074
N         8.04313938215527    2.57734262365448    2.91255358863295
N         6.41987938095654    1.35687768497014    2.22524221261228
N         4.72986500409777    4.93394693893063    2.57313048861872
C         4.20374826813140    4.84180635554254    5.16019975837122
C         3.94925446753154    4.79584165260424    6.52831584261738
C         3.06909989142010    5.67989725847328    7.13452166815763
C         2.41252115955233    6.63913644849158    6.38191159646319
C         2.64058195222549    6.71759841695311    5.02263150413391
C         3.52781225271100    5.83191082750651    4.41129036746514
C         3.83211799819401    5.85873454848873    2.98426944096407
C         3.27214695539915    6.75331278160524    2.06955825932516
C         3.63475328600357    6.70127864348453    0.73935308232139
C         4.56129617454874    5.74889461508788    0.33643585774010
C         5.07715747980325    4.89077979191503    1.28775775304734
C         6.02732572464454    2.53625133825199    5.53096930271574
C         4.11161068606745    0.99992722462106    5.64765120908173
C         6.22468957110919    0.85552221768323    6.97251537481848
C         7.34786626029630    1.60651452945198    7.06069502184559
C         8.14149409704200    3.72139173629781    5.98224528873527
C         9.22565015765316    3.43734284074393    4.93392470590920
C         8.77563974121494    3.67847091021206    3.48658719337462
C         8.60103973158211    1.48367136225441    2.30484076418338
C         7.57583090996665    0.71359063164272    1.86880765164528
C         5.08792682110233    0.90070899280219    1.93576174181303
C         6.69954649314981    2.50697111620365    2.86046202957443
H         4.44420956897843    4.06032305640084    7.15051989186817
H         2.89508468044535    5.61927476777750    8.19884880632124
H         1.72630305688162    7.32486288457056    6.85468149948530
H         2.12617328844117    7.47087100841307    4.44580595555628
H         2.55605064712999    7.48454059522320    2.40488634036988
H         3.20679473334495    7.38864695532471    0.02647542171487
H         4.87670422066751    5.67257330773446   -0.69101594925170
H         5.80187693090847    4.13843548020970    1.00192004855891
H         4.15611547341658    0.02610166871505    5.15813872618890
H         3.68945605461605    1.74332019260294    4.96333433458924
H         3.47120733586719    0.92193835368475    6.52655226414263
H         5.93552077619981   -0.02778185751887    7.50301048762769
H         8.20995799977697    1.49576891613801    7.68517164359567
H         8.61746930620375    3.92207762677827    6.94483156619125
H         7.55860851448140    4.60438931572150    5.68584378200341
H        10.06123594674477    4.10773544991243    5.13467262351002
H         9.58663145632931    2.41233176663920    5.04367009222528
H         8.12726056936410    4.56312461876618    3.44924755279930
H         9.65495800211508    3.86104065192866    2.86349801568358
H         9.65895063750647    1.34456726335421    2.22237058407840
H         7.57893744784990   -0.21782533867974    1.34200818929360
H         4.92431633245208    0.84968178587752    0.85794378463980
H         4.37989899133022    1.61016318392234    2.37389789558565
H         4.92075531446624   -0.08989404598011    2.35998603756026

