36
CSD_code = RESSIS | q = 0 | S = 0 | Stoichiometry = C16H14Br2N2PdS | MND = 4
Pd       -0.07082762870842    2.69078868787185    1.98941756662623
Br       -1.70779190667501    0.98379595228244    2.60989216065808
Br        1.63038590006870    4.33836774035145    1.42089124444908
S         1.83489109190818    0.54320124753227    0.48167665628936
N         1.80747479543377    0.73260464479372    3.00329245221955
N        -1.43805522782289    4.09628607363117    2.01410198297618
C         1.25963194118255    1.28673208906126    1.92585589283922
C         2.83741670053439   -0.55618590874651    1.39742573658478
C         3.67516141656364   -1.55493764645443    0.93066189911891
H         3.77484105337076   -1.73416389304229   -0.12753863220943
C         4.36861453680109   -2.30444846869515    1.86047607266254
H         5.02840357459669   -3.08934030353826    1.52547153871013
C         4.22594551623099   -2.06083928296234    3.22384441080888
H         4.77732137165455   -2.66222766136525    3.92971734482774
C         3.39283730090250   -1.06501719551716    3.69330363538968
H         3.29399333569892   -0.88021097700679    4.74983874523629
C         2.69212290675286   -0.30252734041437    2.76603395172274
C         1.49808503365129    1.19270466008799    4.34900126469359
H         1.04720631572107    0.36615504904751    4.90805985195956
H         0.74384197500442    2.00640802656449    4.25902366652966
C         2.72373630794187    1.72036377804999    5.05040234217419
C         3.03652801883200    1.30611390906149    6.33814307310369
H         2.39520888055831    0.59986160901418    6.84734438515456
C         4.16003579143419    1.80325432528281    6.97517362938605
H         4.39479662748510    1.47855609465533    7.97798249566160
C         4.97969049328274    2.71216181220694    6.32802811162585
H         5.85740087279892    3.09674250000658    6.82537931151430
C         4.66733588648514    3.13271236602769    5.04609415616483
H         5.29503199865173    3.84972367247270    4.53984425963244
C         3.54184851872670    2.64227951810513    4.40961262472505
H         3.29316891730513    2.99076214533523    3.41729877074320
C        -2.18167554399420    4.95851496022407    1.86975619522995
C        -3.10591604613184    6.03340951628370    1.70576662002460
H        -3.51934111093333    6.31023297874527    2.67564667011934
H        -3.91405388669274    5.72184400189670    1.04380190541070
H        -2.59019572864212    6.89062131915116    1.27227800724644

