56
CSD_code = RESVIV | q = 0 | S = 0 | Stoichiometry = C23H3CuF24N4O | MND = 4
Cu        3.48903101931857    6.29528474837946    5.49619113364473
N         2.42322943264541    7.73981262877537    6.56304345117297
N         2.07545787997791    9.20529702422360    4.76066221034065
N         3.66262623971913    7.68832826935066    3.92454360327712
N         5.15857047395868    7.03237270444321    6.23664833031628
O         1.98173531863365    3.84720602477733    4.84971287943881
C         1.94606218640522    8.80099625754023    6.00736804514963
C         2.85438791175201    8.68535938121675    3.83189885120583
C         1.07994083407812    9.79456645512970    6.81178574801021
C        -0.02040708854066   10.47179970591814    5.94645048164372
C        -1.11466371475470   11.16517691059046    6.81816612609243
C         2.65046184494030    9.46366812783215    2.51541452806062
C         1.21443265156058    9.20328142707209    1.96614659520151
C         1.10995404038814    9.41491676389532    0.42544966127571
C         2.31657015499451    7.39692633639137    7.89919524638364
C         3.06688769355053    8.04523758019408    8.88470873302373
C         3.03678329573149    7.63846410338450   10.21117270413882
C         2.24068981335312    6.56053972092878   10.58739750486122
C         1.49756129166880    5.88621932860562    9.62067447644332
C         1.54708341352480    6.29905331628306    8.29676244702424
C         4.55651416757449    7.24158811321503    2.96782783736691
C         5.83082667467820    7.80503326699125    2.85574866954367
C         6.77786444881178    7.30021601267049    1.97709442834606
C         6.46759159263474    6.20122970631524    1.18061005148178
C         5.21015204023267    5.61130438440150    1.28548279110912
C         4.27530102482882    6.12712096152153    2.17269715161567
C         2.63699311752383    4.72118643913802    5.13156306306531
C         5.83164884403578    7.92027858136215    6.51631467730903
C         6.67912093802281    8.99903416975816    6.86963978721469
F         0.46952798293619    9.19071290950966    7.86410460778281
F         1.86488113058762   10.75478845246049    7.34693988660253
F        -0.63365277169486    9.54641289378352    5.18388275055718
F         0.51754961805299   11.39250855341414    5.13578773297950
F        -1.91575145033281   10.26371239401102    7.37952464887838
F        -0.57774723068057   11.89686745257073    7.79030653314287
F        -1.86436029419043   11.96674218951557    6.07246713184145
F         2.81822360791707   10.78235779592343    2.70286256708701
F         3.54246228704757    9.11246220543086    1.55338028552806
F         0.32934379544658   10.00214716842256    2.57196912751274
F         0.85517941760962    7.92802678324123    2.23251283352411
F         1.72746459096969    8.43037737880208   -0.22516047269421
F        -0.15912499402106    9.42289878661131    0.03944773122602
F         1.66085028913290   10.56439938885404    0.05323883386694
F         3.86579039247701    9.06296152900937    8.52809249770298
F         3.77945309293944    8.27285654186040   11.11790313213898
F         2.20567958936796    6.16441154516876   11.85828323625987
F         0.75147056289329    4.83956830035656    9.96644644732165
F         0.85181035439663    5.63100076105528    7.36804011881620
F         6.14422167993005    8.85493803959475    3.63146541793661
F         7.98509217528065    7.86066695562727    1.90615778767007
F         7.37248754364647    5.70855742833848    0.33672287348865
F         4.91013819872569    4.54826205130060    0.54317620226353
F         3.07711508126738    5.53940184005609    2.28982674462057
H         6.14430419478269    9.66224673898044    7.55047616627135
H         6.94752400853682    9.54944011513168    5.96738614241861
H         7.58145960570174    8.62687534850310    7.35408782259014

