78
CSD_code = RESXUI | q = 0 | S = 0 | Stoichiometry = C33H37ClO6Ru | MND = 9
Ru        4.43061699553989    7.16126493006216    6.79284290514686
Cl        4.48395939114096    9.47662294432989    7.07792139286609
C        -2.87553966617361    9.31143825311376    2.97689371054029
O         3.53220693870532    7.16728510082823    8.63461480269538
O         2.60649460933800    7.50155950392747    5.91636618917252
O        -4.09052945340057    9.83665482779145    3.29830624123645
O        -3.73285906521948    9.33519784460250    0.79127964227645
O         1.89853617658738    7.65061291741513   16.80454200931999
O         0.02484913454414    8.42740506303984   15.20743832999273
C         6.62397098874895    6.56913856849843    7.16926561327500
C         6.48324013262358    7.17261343652105    5.89089555667256
H         7.11908742445020    8.01443057529609    5.63215018953432
C         5.62386716339903    6.63340506661510    4.91191927068975
H         5.60811167579098    7.05527947703340    3.91332985306231
C         4.81847675687492    5.50883978344711    5.21261806567157
C         4.90930942838560    4.93255572731238    6.49425966137783
H         4.34344010809486    4.03770178979453    6.72454693723957
C         5.79783104830013    5.46729921510023    7.45878433560473
H         5.88445394221073    4.96764097886519    8.41724199185763
C         7.60754348735105    7.11230800384264    8.17940863113811
H         8.10863427067433    7.97719653938378    7.73110696243918
C         6.86944348292420    7.59192559346548    9.43197265943021
H         7.55629989011156    8.10489023785095   10.10088537787551
H         6.42752382233487    6.75339579386834    9.96557166036137
H         6.07423858349034    8.28242212384280    9.14910914968763
C         8.66855329552093    6.06320474701536    8.52442519205225
H         9.40441624924260    6.49089303621330    9.20086707549117
H         9.18130058398783    5.72507394705826    7.62591257458104
H         8.21948133187049    5.19991939030518    9.01040641097353
C         3.89504617018261    4.94501622031753    4.17525699119103
H         4.35592012161936    4.97797338685605    3.18951990329091
H         2.98299083925269    5.54331070960917    4.14277365099736
H         3.62057762667846    3.91890608957308    4.41021757066819
C         0.43325827118291    8.19844018783075    4.37209497933784
H         1.35844213977400    7.87150318803180    3.91319331121738
C         0.41098064849670    8.26981674476972    5.71316929098234
H        -0.46515437600938    8.58702344858183    6.25634132830989
C         1.57834484715866    7.93163246489588    6.52868353799228
C         1.44209271214769    8.06559737471766    7.91865840537624
H         0.51239105201574    8.47191638159859    8.28535455645691
C         2.38575312456274    7.65853674562850    8.87588607895022
C         1.99123093529766    7.76200329604737   10.28155672267045
H         0.98929751630127    8.11640797294015   10.46542125427638
C         2.83799250533939    7.45308555309420   11.27752021945763
H         3.82624478961820    7.11641547220747   10.98993640508339
C        -0.64025782449809    8.50161548960539    3.45469496892074
C        -1.86638659344788    9.03773815875268    3.87544910852203
H        -2.00809008021479    9.24582071038286    4.92222245321192
C        -2.68163738562296    9.04204589756319    1.60012420391009
C        -1.46933971864322    8.51657783801986    1.18308054523685
H        -1.29586244448231    8.30809592367641    0.13931376777353
C        -0.46294122236969    8.25473552777560    2.09656293287464
H         0.47378294996419    7.84787622215756    1.74596716384164
C        -4.34434659638233   10.15756762431174    4.64268552561576
H        -4.30824922833916    9.27003473406188    5.28369217250736
H        -5.35132455300956   10.57147735805887    4.65956656298820
H        -3.63932200409778   10.90639454979326    5.01897312329500
C        -3.60304399435381    9.09771766806727   -0.58785303461679
H        -4.55088016246729    9.40258573045073   -1.02853499888954
H        -3.43052292814670    8.03718435432769   -0.80029720033255
H        -2.79361596795846    9.69160010239688   -1.02536815477665
C         2.59140772097998    7.51456809811299   12.69889426888886
C         3.59224423686712    7.11267854754494   13.57868802781655
H         4.53863165553739    6.76956458285222   13.18842792087435
C         3.39722745816641    7.14326075357611   14.94862314879015
H         4.19563182572419    6.82162925054962   15.59834235544714
C         2.19556516973658    7.58231416501358   15.48072725119209
C         1.16889115637819    8.00385713989149   14.60108344197120
C         1.37651101046202    7.96236471428904   13.23881552478918
H         0.59858113449594    8.28263179167000   12.56701750935929
C         2.87665106053885    7.25162942425491   17.73156372769592
H         2.42512425277157    7.39067242740204   18.71255330461370
H         3.77822669324173    7.86890702873903   17.65800380689695
H         3.14714347972626    6.19791066314943   17.60457301264212
C        -1.02908763138185    8.88445318837538   14.39824270883933
H        -1.81818130763224    9.18315906393750   15.08652699232072
H        -1.40485150163268    8.09389306236502   13.73961843316276
H        -0.72964631096719    9.74807755568279   13.79495282607642

