63
CSD_code = RETBAU | q = 0 | S = 0 | Stoichiometry = C22H27BN7O4PW | MND = 7
B         4.85824482019848    1.61581649205345    2.83393733366806
W         8.00492212338144    2.27838420145322    2.29764924314231
P         9.68436150675056    1.01428798297267    3.51812071442732
N         6.86956304444234    2.41567659893671    4.09705994059208
C         8.33633350845208    2.15582226934263    0.01729447359989
C         7.28680632873104    3.81727645539712   -1.49391120269978
N         6.89583846356888    0.43315267868442    1.99257032384427
C        10.66806970313470    2.56042649773306    0.67382976600106
O        11.10905972730025    1.62502640004963    3.90353665481655
C         9.46588456667645    4.27926959277899   -0.53763821866338
O        10.19070045378346   -0.35354147490833    2.82781226167696
O         9.29735401409052    0.51091221334936    5.03926958092852
N         6.24216547241683    3.29480717942752    1.62412770123660
N         5.59094184665815    2.02700231196831    4.12877549497648
C         8.35081237263664    3.41972904571069   -0.67230410307190
C         9.44183577226383    5.52930988976580   -1.16804044360288
N         5.58637701284314    0.40143946981706    2.25257440068966
C         9.52764027104299    1.68966059759118    0.64426864987343
N         5.02401101991677    2.80738201232880    1.88933999327421
C         8.36767355719627    5.91256827908491   -1.93805496583473
C         7.29351045280566    5.04429095851836   -2.11795002631705
N         8.79291812677048    3.83214463122418    2.55802452112611
O         9.28385177027267    4.90291329988243    2.73289473358936
C         7.23765838287264   -0.76462536244648    1.53350298487984
C        10.61908499668392    3.81384254908386    0.16673509591248
C         7.18431956070751    2.87357329813028    5.30174363474328
C         6.11946492851498   -1.59648468407442    1.49439538649720
C         5.08834574179016   -0.80924453964972    1.96245846995059
C         4.08781186090134    3.69540901213439    1.50659670383502
C         5.08563464456227    2.23311848673960    5.35575025710421
C         6.08833018931947    4.49777477078450    1.09304353816332
C         4.72788974435381    4.79542843401922    0.98426564864690
C         6.07787485487734    2.77420324550471    6.14542180634455
C         8.13183895799606   -0.25026128358375    5.27201649299594
C        11.24289241871283    2.86823286815308    4.57814641804235
C        11.20095715204341   -1.15353256460353    3.43397437364894
H         8.25191218232103   -0.99217062723402    1.26482824177090
H         9.74288224461642    0.62330861886575    0.64802390593063
H        10.28715092913655    6.19127729002527   -1.04466189855842
H         6.44912233550275    3.14578965519871   -1.62916884073703
H        11.47484232911749    4.47079192896635    0.22628178824282
H        11.58396228191769    2.18285060262851    1.11189067241628
H         4.28546630097493    5.68467376555144    0.58593375027667
H         8.16844851882365    3.25262229156249    5.50791731805791
H         6.07276941810798   -2.61577886418109    1.17101395727097
H         4.05050647793296   -1.03208281234598    2.10345234273467
H         7.64421651496615    1.41509855111671   -0.39416697829305
H         3.72101315011526    1.36998035373425    3.04413055012303
H         8.36079551674022    6.88105098865294   -2.41708226338029
H         6.93177989300129    5.10629128868300    0.83179585306912
H         3.04420491250085    3.48802511592794    1.63100952297364
H         6.01176414457087    3.06062452715690    7.17466325000730
H         4.06932104135676    1.98677380236079    5.58665765336878
H        12.18385895934842   -0.83470270850606    3.08715600686391
H        11.01775103294738   -2.18424649563945    3.12936739831744
H         6.46236814655773    5.33894545364174   -2.74240901174872
H         8.38823162109801   -1.31011757849356    5.34774340774497
H        11.16317283358684   -1.07337815233242    4.52105399878391
H         7.69224827234541    0.08508048958456    6.21296585471114
H         7.40356638187387   -0.12612648289337    4.46768395769582
H        10.79826189103361    2.81325148991266    5.57259623336338
H        12.31363069909626    3.05051695626841    4.66715063479310
H        10.78277260174440    3.67495873843577    4.00993505616628

