84
CSD_code = RETGEC | q = 1 | S = 0 | Stoichiometry = C28H51O2P2Ru(1+) | MND = 9
Ru        0.46880003474655    4.44495962462260    8.49711177130721
P         0.58801416451290    6.80617999657944    8.37621232965579
P        -1.26942249599818    4.57867758035632    6.88644541557707
O         4.03432610225877    4.60220370187420    4.52399543606636
O         2.68944772471534    6.35994965513437    4.04778434342721
C         0.75487484325829    2.20663991830559    9.00541125785799
C         1.97807945884241    2.73080883236280    8.50058497879700
C         2.40999462957608    3.79843487638343    9.36561104482110
C         1.44551511140572    3.93526546591146   10.40851791709183
C         0.40809078812092    2.95797364588129   10.17563116974719
C         0.15728512086862    0.89883867575206    8.58637599477095
C         2.84284666405273    2.07523486829322    7.47380542595930
C         3.78974989180905    4.37335041280099    9.33087256443219
C         1.61284563371472    4.70484525045335   11.68183282194223
C        -0.63102961492379    2.56157235523821   11.17870444284433
C         1.48213209395928    4.85955995908225    6.82896419556529
C         2.23911461262718    5.03637911358849    5.89786928620045
C         2.99131532440197    5.41215080079951    4.73538911107511
C         4.84075949651907    4.89792138457688    3.39183008022443
C        -0.18106744574530    7.86724527616450    9.71913305437250
C        -1.49387314262325    7.33268561894061   10.28004194815965
C        -0.36817764905171    9.32182816578828    9.28954934254786
C         2.30510802822772    7.52492895567935    8.14317322051064
C         2.42867958165637    8.53507561444446    7.00286002360636
C         2.89089947237735    8.08530259786217    9.43914593781069
C        -0.33157858535460    7.23235715909205    6.82919004216590
C        -1.60040424360613    6.39338594593288    6.70135969616658
C        -0.94183541348364    4.09020495640538    5.11232163073310
C        -2.17633523757234    4.10097191106088    4.21650089041895
C        -0.20574819096654    2.75728504819891    5.01083275689693
C        -2.97803750594533    3.93422801045767    7.26888672291770
C        -3.57422936627963    4.50741270176892    8.54915791954402
C        -2.92966267192626    2.41343923859537    7.36833291041407
H        -0.76823523802482    4.80908571925064    9.28838148274311
H        -0.77901640703119    0.70283708680964    9.10172839595736
H        -0.01619403216790    0.85214343519334    7.51315270436824
H         0.85562679658928    0.10092884218848    8.84691392685130
H         3.64419235398302    1.54023595131327    7.98738023542249
H         2.28189465365396    1.35886006118195    6.87867101319614
H         3.30165227091560    2.80131255703451    6.80395760891748
H         4.48184415877168    3.65154121427368    9.76973363072058
H         4.11108823924997    4.56094000345525    8.30748196285521
H         3.86164331201500    5.29755702550808    9.89798586768838
H         1.96199670718358    4.02770275448761   12.46375944871277
H         2.34753334139002    5.49876315779429   11.57136465226073
H         0.67474672151042    5.14602221713890   12.01413792131708
H        -0.90116414496832    3.39462474011614   11.82360868389852
H        -1.53538457783171    2.18769561169397   10.70238821871128
H        -0.22543649041702    1.76561456774838   11.80644401677878
H         5.45389882153891    4.01809976175176    3.21427485636696
H         4.21329285252336    5.11374701913411    2.52492720783206
H         5.47206936650838    5.76530814163274    3.59621915234352
H         0.55885215774166    7.82671602827832   10.52701568953059
H        -1.77044607784456    7.91358292926769   11.15774675020940
H        -2.29994928760309    7.42035865312694    9.55666733915316
H        -1.40495814038006    6.29120106097188   10.57898081971436
H         0.51096588399801    9.72594480985770    8.79739053481874
H        -1.22072975405070    9.42447572628573    8.62229183607839
H        -0.56723577010833    9.92976959923530   10.17016923971814
H         2.90163822172971    6.64877716754669    7.86384889768463
H         3.44272008591638    8.93081551068205    7.00137901654949
H         2.26014032124991    8.06878189195215    6.03619897990598
H         1.74711343680816    9.37358202499399    7.11137831360845
H         2.74816112224363    7.39640899759569   10.27009826847883
H         3.96119185159947    8.23624042022208    9.30993055054992
H         2.45264355512316    9.04377917316826    9.70263030330252
H        -0.57327498624716    8.29741214312248    6.81964792371276
H         0.33878501475801    7.02254622009051    5.99195644091623
H        -2.07224400809030    6.57329817228493    5.73075724314001
H        -2.30666757935509    6.67341745260541    7.48485578711203
H        -0.25594458765680    4.87970009522100    4.77491618848820
H        -2.73795782255761    5.02869026367285    4.30039816387516
H        -1.85668912521690    4.00219621140431    3.18103409595005
H        -2.83899343264597    3.26815694396222    4.43784884115307
H        -0.87593457509704    1.91666230403303    5.17338155648929
H         0.22677061277711    2.64944193664737    4.01855848282377
H         0.60246659962648    2.71631911408476    5.73858513137617
H        -3.60578707301154    4.23526392728369    6.42257250477521
H        -2.90609958145417    4.34694064818497    9.39326716187823
H        -3.78726391548175    5.56932891395287    8.46724600369224
H        -4.51352283584992    4.00138567487939    8.76274154522214
H        -3.92425739426134    2.01537948851446    7.55957899677416
H        -2.55636103576673    1.95993297030791    6.45454150207982
H        -2.28005780048696    2.12487634048557    8.19113922067264

