129
CSD_code = RETHUU | q = 1 | S = 0 | Stoichiometry = C58H62AgN2O2P4(1+) | MND = 4
Ag        9.39182921057453    4.22598036096324    3.45059392673985
P         7.43869400838839    5.79793534826599    3.69796738175240
P         9.04158800399412    5.66112965872726    1.38252784680838
P        10.71779256857973    2.22414353277960    3.98772668480854
P        11.70035017564895    4.81605636712186    4.56572009621506
O         5.94746937536396    5.24838943548001    3.38804232022426
O        11.18704300636106    1.49758381618286    2.62981412023302
N         7.96428446870743    6.63652410188425    2.29798087188233
N        12.07839821914641    3.14193721182635    4.49089069986488
C         7.03481872954763    7.10628779204631    4.88824139937850
C         8.12086440329410    7.69015240943338    5.53422386756104
H         9.12359883272188    7.38445156665708    5.25641412107018
C         7.91683665293991    8.64294240955802    6.51262218592573
H         8.75951034367711    9.09834113280369    7.01088771324122
C         6.62378516684553    9.00476134522319    6.86051621452451
H         6.46064270648373    9.74846399904489    7.62536486153856
C         5.54035606928201    8.40574852192138    6.23835084469091
H         4.53540373099450    8.68148828805063    6.52034177969324
C         5.74069058874068    7.44807464453774    5.25937742786914
H         4.89840155992686    6.97027504337955    4.78071532041326
C         5.66692058294565    3.88754772194714    3.28449317899561
C         6.08844438974277    2.97961424299189    4.25770880855601
C         5.80720115256883    1.63013261013813    4.06559602871766
H         6.13654190901179    0.92040232028798    4.81022105675243
C         5.10245700892014    1.19617928310820    2.96091206623251
H         4.89562685272678    0.14539674108086    2.82807844877525
C         4.61805970872261    2.12033377476834    2.05338428382946
H         4.01748705193890    1.79396090460117    1.21794892153713
C         4.88107787926814    3.47367759825432    2.20503830487837
C         6.74272831204554    3.40367171228075    5.54267790953403
H         7.82326667407531    3.21373317751549    5.52029568701641
H         6.32307948614536    2.82464691504470    6.36411940007538
H         6.57084195929412    4.46100118336297    5.75018518654138
C         4.30548015085540    4.47685114857701    1.25612400989786
H         3.61000175205460    3.99912990369396    0.57208902325589
H         5.09289812456697    4.95181378355422    0.67428913105695
H         3.77918911575396    5.25584886934212    1.80462301851005
C         7.59766434072533    9.10306133724204    2.58573243884347
H         8.58032436130197    9.13792737181126    3.04678717832311
H         6.84366069093031    9.12469928311525    3.36671943660662
H         7.47826370443776    9.99375941853973    1.97308809312828
C         5.98346375835282    7.72580763832854    1.27201146632457
H         5.88029603040922    6.95155417024689    0.51584331287249
H         5.62594346847683    8.66375410892163    0.85466795337324
H         5.37035856153814    7.46888795932149    2.13221729260509
C         7.43914666147610    7.87216895332836    1.69571943722985
H         8.05458366737381    8.03189824368529    0.79925724234026
C        10.44783974868984    6.74547431807642    1.00370200381520
C        11.22495090252102    6.48505388195349   -0.12302340140151
H        10.90394876578157    5.72842150527855   -0.82592897458631
C        12.39488780223937    7.18969479116742   -0.33560690928762
H        12.99057558431171    6.99082060513413   -1.21415070895591
C        12.80287851881217    8.15182688507221    0.57456424316647
H        13.71162359555479    8.70762758090262    0.40192263866928
C        12.05019757398457    8.39236277013743    1.71212773136098
H        12.37311771718513    9.13418403617329    2.42660298878722
C        10.89055470733123    7.67565399768014    1.93885216893818
H        10.31827711362323    7.83220347865827    2.84318199092875
C         8.18583179705539    5.46315152864643   -0.21503587153080
C         7.37521163880894    4.33587014732183   -0.31075510795299
H         7.33110105756690    3.64591453672312    0.52527767440600
C         6.64071789720504    4.09801474838641   -1.45797786226390
H         6.01249897654484    3.22254843326874   -1.52384348483450
C         6.71633011406319    4.98565174677365   -2.51889852101848
H         6.14655254453931    4.80371827020917   -3.41731588518733
C         7.52666336601244    6.10686594593600   -2.43039355890703
H         7.58565161448533    6.79647204855916   -3.25898993003344
C         8.26324023918134    6.34960187557238   -1.28480899138480
H         8.89902305586853    7.22230461445751   -1.22999337018645
C        13.19884786245564    5.71971625743472    4.07076016046704
C        14.11915482104389    5.23749841719339    3.14664741023551
H        14.02885781226319    4.23069603530887    2.77021825112783
C        15.16131571966890    6.03988271750344    2.71866101455804
H        15.87819106842653    5.65187808690847    2.01061999382496
C        15.28758603950275    7.33323090557116    3.19630014603686
H        16.10619309086772    7.95421364862431    2.86622080911662
C        14.35862115380712    7.83004953880978    4.09696248487307
H        14.45168377047711    8.83997539069802    4.46812676403897
C        13.31248491991893    7.03438231916496    4.52149772960323
H        12.57969818861523    7.42298891325114    5.21677337504905
C        11.65562218572044    5.15181526549170    6.36551238936011
C        12.77802504195860    5.38107631511041    7.15567358286354
H        13.76126857400254    5.41448566287485    6.70848028058697
C        12.63210854224269    5.57184579607520    8.51792299709588
H        13.50459156458062    5.74714358736029    9.12905747211767
C        11.37423320035563    5.54026461532466    9.09999364972622
H        11.26909739291017    5.69366721565315   10.16306569592976
C        10.25236483404882    5.31790910329720    8.31778488797937
H         9.27034845120638    5.30167688253231    8.76665404387679
C        10.39614201810408    5.12456118192476    6.95646966592226
H         9.52262260264414    4.96133328312656    6.32549297703598
C        13.22490048329556    2.08491599265942    6.46934621378797
H        12.57236057719185    2.70572482110669    7.07763049618409
H        14.21117439077803    2.07307673090793    6.92732341283410
H        12.84020642904272    1.06956674787382    6.46816681056102
C        13.95470237732760    1.58573670629689    4.12970341668683
H        14.13303571066069    1.98791446942955    3.13572615718334
H        13.28967580843929    0.73072432224072    4.04321479478540
H        14.90306742951692    1.24998871884666    4.54197220300953
C        13.34215349536807    2.63597889583233    5.04738836568030
H        14.00924520714706    3.50761565844105    5.08399828376671
C        10.65528237875667    0.82549732797902    5.14716606668039
C        10.99660593744328   -0.47651459744706    4.80505998091780
H        11.38284063651106   -0.69149366303926    3.81903292704970
C        10.84619651337782   -1.49168455598306    5.73344667323470
H        11.12256908016941   -2.50208997492049    5.47214692959537
C        10.33857939264751   -1.21540719827851    6.99254613047870
H        10.22137220834775   -2.01121484163267    7.71189757746223
C         9.97415696676644    0.07993834209961    7.32839433318464
H         9.57104672988770    0.29279671449110    8.30691702111080
C        10.12463947149188    1.09598699254544    6.40499510425683
H         9.85112058634391    2.11449240953242    6.65408360834724
C        10.49571846853384    1.69328213276483    1.43264890102822
C        11.07719868435617    2.48394286163117    0.43985684297256
C        10.44065836863766    2.57906423034933   -0.78986352441563
H        10.89297459054492    3.16922353067142   -1.57278324491050
C         9.24892098246625    1.91916422028267   -1.02396463979546
H         8.77268181793217    1.99237572749278   -1.98927125865106
C         8.66675565463781    1.17263493442111   -0.01720605561367
H         7.72889196588661    0.66730126000290   -0.19175600080043
C         9.27441363078178    1.04966110645171    1.22652994673320
C        12.35724953308653    3.20895330974815    0.71008869922270
H        12.73469762663871    3.68308044985397   -0.19126931148276
H        13.10926386691937    2.51816422993108    1.08783039831977
H        12.18863566404614    3.98382371485613    1.46307145143664
C         8.64813112952802    0.21867531694434    2.30279544808076
H         8.62326723426328    0.75867087640278    3.25288135832329
H         9.21721253668606   -0.69794726742569    2.45556009507315
H         7.62969807239267   -0.04607691059410    2.03324174508647

