145
CSD_code = RETMIO | q = 1 | S = 0 | Stoichiometry = C82H54O6P2Rh(1+) | MND = 8
Rh       12.43107418469496    7.90818510614244   22.93704467703848
P        10.81865352997073    6.60740780243804   22.10698693115915
P        11.08721012317034    9.59266365155197   23.46189943102507
O        10.71167018145275    6.60551417983037   20.49949700830411
O         9.38677371626373    7.24989987997785   22.52931453739116
O         8.57684987719382    3.88006982723035   19.90461609001763
O        10.00863409022270    9.70541574811360   24.65046182079729
O        10.28228206186458   10.11874514196965   22.17298178061937
O        14.03623285437179    8.71537842184150   25.54527851400801
C        10.45053342201234    7.87565924317945   19.98190780446290
C        11.52751146447363    8.63419792133551   19.50793082286905
H        12.51439819412910    8.19585516890007   19.53473648733707
C        11.29975512956517    9.88283229031748   19.00291002540909
H        12.11942711590353   10.47447157988639   18.62289124532403
C        10.00014507582935   10.43059493947433   19.00179886154400
C         9.75565026426460   11.74026166207909   18.53598370170545
H        10.58183807758768   12.30393645979876   18.12738167346784
C         8.50791879266243   12.29154982045097   18.60919364036563
H         8.33107348740348   13.29566225189295   18.25518412090688
C         7.44736225125280   11.55497494600203   19.15638416160435
H         6.46994104676364   12.00815664931885   19.22937186279551
C         7.64301390726476   10.27290587190876   19.58840856838599
H         6.82301479599169    9.70712091246525   20.00165345240798
C         8.91472637953266    9.66733423515463   19.51043588859903
C         9.15579728093348    8.34666091086174   19.97865622977369
C         8.09414363056960    7.47266856116924   20.51912612484776
C         6.92844555407150    7.13747193310638   19.77652598347318
C         6.74132793676625    7.54542596149998   18.43734913850686
H         7.51956399986903    8.11036496576010   17.94736834661963
C         5.59844222792986    7.22377408225062   17.75881332695801
H         5.47085382641138    7.54157750076452   16.73499762472915
C         4.58485073537353    6.47867965890323   18.38066214011744
H         3.68248015523759    6.24899871831559   17.83496659942231
C         4.75519561465064    6.03072406631954   19.66005921540630
H         3.99508735868809    5.43120959309277   20.13888185323930
C         5.93244460571285    6.32431991964941   20.38065654984008
C         6.15986293881996    5.78628777116514   21.66302452892689
H         5.41432270727733    5.13700997282955   22.09607547622957
C         7.31856456337525    6.05124327302434   22.33237216394474
H         7.53130214062760    5.61715399610916   23.29616718364960
C         8.26320410241149    6.91896741209003   21.77007720482971
C        10.61805178254805    4.85456329704998   22.53332817022730
C        10.43213769381205    4.67644746584292   23.92019659209424
H        10.45785543629053    5.56080740558972   24.54883814328591
C        10.21566953796817    3.43557046333539   24.43845685713125
H        10.06326784294215    3.29335860390258   25.49858442872094
C        10.19300215916747    2.30593402825921   23.58943759602379
C         9.97195033154615    1.00784168675089   24.09245171821103
H         9.80205078249250    0.88523572229358   25.15226700388700
C         9.97374226315251   -0.07523767758905   23.25805056938701
H         9.80254187938659   -1.06602946002627   23.65086005079976
C        10.20373321811504    0.09189429427653   21.88412948986822
H        10.20947888344453   -0.77372938633920   21.23912598397439
C        10.42153639066409    1.33760768259413   21.36471959988920
H        10.60499513316091    1.46789780446515   20.30872473042241
C        10.41366957160939    2.47689448935749   22.19679447307471
C        10.63234417480182    3.78039366173014   21.67624127340120
C        10.88684737836601    3.97211235903753   20.23282267333294
C        12.21115238331931    4.08942456843835   19.75689234538800
C        13.32916411802243    3.91209720086630   20.60204236096862
H        13.15995098644663    3.68482645530275   21.64563506177992
C        14.59988167506483    3.98748395243220   20.10356958636694
H        15.45133354731699    3.81799182710259   20.74864587046291
C        14.81883167316742    4.27048119238834   18.74481164859326
H        15.83073764755674    4.32925786543941   18.37142950482243
C        13.75721413060960    4.45010224649705   17.90351598463098
H        13.91588870985829    4.65407482915332   16.85452541816721
C        12.43326330292649    4.34734164568087   18.37881880337772
C        11.31980239207702    4.46964248742982   17.52660860849929
H        11.48533081989667    4.68071654449855   16.48028337794054
C        10.04613038630922    4.30684330199861   17.99493103957510
H         9.21341640002566    4.39312449272810   17.31509085728980
C         9.81529913853757    4.04737825204682   19.35839750024661
C         7.48631036968757    3.68164250254390   19.03630131560722
H         6.64314733213566    3.43503032969787   19.67867685810045
H         7.67195565897996    2.85160648051730   18.34760958927974
H         7.24702319822583    4.58469767189666   18.46690899848562
C         8.70014572483808    9.27176708695498   24.45868547718802
C         8.27441408645505    8.15616807260402   25.19305750198152
H         8.97914173602886    7.68932880170876   25.86349389449648
C         6.99559645278381    7.70096646739798   25.05747000031830
H         6.64856694948020    6.85849165331188   25.63687204070473
C         6.11728944580852    8.29932779204543   24.12974658540289
C         4.82701331861074    7.77786800495683   23.90068768601621
H         4.50610846392054    6.92572757389901   24.48146010108768
C         4.00701805396736    8.32479981914194   22.95509637596847
H         3.02512262441123    7.91396767354898   22.77672887129025
C         4.44056355996295    9.42860513953691   22.20679710768770
H         3.78991415408256    9.84715562916672   21.45377640087505
C         5.67215513842110    9.97904586364787   22.42892063013359
H         5.99121328923147   10.83822535666802   21.86029922200342
C         6.54649269669807    9.43508923010449   23.39406309840944
C         7.85139974711798    9.96017464760770   23.61882898777765
C         8.30350593141602   11.22090740820767   22.99424120377948
C         7.56292361854710   12.43031572191284   23.14747849901429
C         6.42255034876785   12.52158640743740   23.97497344027573
H         6.10272297120208   11.65353111236050   24.52974667886900
C         5.73248736721114   13.69613890590678   24.09399369819343
H         4.86506099089937   13.74838633837062   24.73416565190479
C         6.14400104562097   14.84091523045573   23.39590873090922
H         5.57924160609355   15.75550437370264   23.49180649739347
C         7.26713049875127   14.79749817452524   22.61922694726056
H         7.61205260286762   15.67913650656830   22.09947857569360
C         8.01335954259150   13.60711229170368   22.49005892890227
C         9.21387949963635   13.57556549685184   21.75084700099239
H         9.55119108828512   14.47710649567221   21.26283868636897
C         9.95781813031446   12.43411006356194   21.68618433162576
H        10.90133453385466   12.39378514276657   21.16517731019362
C         9.49261295465046   11.26357986231402   22.30175140764323
C        12.19502000710068   10.95305398539320   23.97114985658264
C        11.71807489272668   12.17562972884967   24.47483972043984
H        10.65629436957087   12.31201446972699   24.61609432316675
C        12.59964029735738   13.16932018709634   24.78989264292458
H        12.24324458296749   14.11306188384029   25.17524746086149
C        13.99026824556838   12.98309712124219   24.63370769841739
C        14.91569027894500   13.99194905309356   24.97357798587206
H        14.53957925434515   14.93233203673173   25.34826046770619
C        16.25974303167534   13.78326437436632   24.83882443952787
H        16.96114479930689   14.55930649698433   25.10446701938469
C        16.74119511309168   12.55506297978373   24.35900769261346
H        17.80581396612666   12.40389100191112   24.26486770509254
C        15.87303640436784   11.55720131757256   24.01495436429117
H        16.24487359644113   10.61182288320931   23.64823000017124
C        14.47912241100235   11.74403960296531   24.13778736722714
C        13.54485409851797   10.73494294248219   23.79873788775507
C        13.98026566968575    9.40849510826095   23.29276890332124
C        14.45571514439072    9.24872986852686   21.93543362656323
C        14.65014198755446   10.32047635041001   21.05323174724416
H        14.48037106143899   11.32828175618865   21.40119759937729
C        15.06731571622438   10.08469221852845   19.76350630178120
H        15.23130222328481   10.91463585710567   19.09342587121942
C        15.28030627057207    8.78135144571629   19.30976508878009
H        15.60371909980169    8.61598684344349   18.29375314727357
C        15.07522419628370    7.70900790091626   20.14674904822154
H        15.22132379788328    6.69807527280898   19.79572838615267
C        14.66693929827280    7.91768256021550   21.47208007508258
C        14.45130497710256    6.83077443209406   22.39261427742381
H        14.60303616129573    5.82540298964901   22.01913573123928
C        14.36968874559635    7.04416305750038   23.76625683816287
H        14.46507938859438    6.21415134254528   24.45467299044748
C        14.13481347374329    8.36726583682299   24.24459378742203
C        13.65513881603697    7.71757387786261   26.47536217224322
H        13.41403557545343    8.25105704149776   27.39251811610019
H        14.46984118171956    7.01492674802766   26.67150905925035
H        12.76942596122443    7.17743278655918   26.11823214889597

