29
CSD_code = RETNIN | q = -1 | S = 0 | Stoichiometry = C7H21W(1-) | MND = 7
W         4.26743141862258    4.26751533540875    4.26698293914457
C         5.57693676294980    5.57680515737190    5.57672470356301
C         6.35371155621916    4.00780356128377    3.34621561613444
C         1.99475244370748    3.84630227278494    4.36570267572363
H         5.02869028147045    6.09363851837915    6.38206497392171
H         6.45039278139066    3.34149103335188    2.47904161204659
H         7.07397812147268    3.62121404590330    4.08785054046075
H         6.76623843548607    4.97577612048335    3.01281698265911
H         1.40597642812194    4.16470492493959    3.49631256370871
H         1.56044151429541    4.39736855045872    5.21933210575984
H         1.70293280409221    2.80103483517503    4.52689127242336
H         6.38228436571086    5.02874377051485    6.09375919884751
H         6.09386471107051    6.38233629542790    5.02885229689598
C         3.34638014020963    6.35391518244939    4.00809657947198
H         2.47942168125482    6.45029094129456    3.34147351737934
H         4.08806466301277    7.07384913457225    3.62081956470703
H         3.01259738024657    6.76631444610047    4.97607586626507
C         4.00743162480811    3.34598546560620    6.35329548200800
H         3.34120927096442    2.47876548056348    6.45043218391637
H         3.62091522568801    4.08795550589593    7.07333625020778
H         4.97553546489764    3.01274720455395    6.76571181025632
C         4.36545444333951    1.99467519868921    3.84707166011545
H         3.49626068287919    1.40529466985258    4.16492882747354
H         5.21932217504342    1.56025722117711    4.39766380545862
H         4.52678765093948    1.70378912954812    2.80157148395169
C         3.84649677603353    4.36580208463223    1.99458208186599
H         4.16470404440643    3.49615526093026    1.40603976177835
H         4.39747203303464    5.21935762880694    1.56001066452974
H         2.80111511863214    4.52691102384415    1.70314297932566

