53
CSD_code = RETNEL | q = 0 | S = 0 | Stoichiometry = C16H26Cl2N6O2Pd | MND = 4
Pd       -2.53391142456585    0.00018247715082    6.33791824336064
Cl       -2.22512495654379   -1.83605058685951    7.68981842639393
C        -1.34825409587400    2.09753775396110    8.04504120365156
H        -2.27937037301853    2.63192275878174    7.99724490593244
C        -0.17479714501932    2.42754405940749    8.73220374055029
H        -0.00382328359989    3.28292221737700    9.35141943084634
C         0.70236768390817    1.41424210861336    8.44064389114142
H         1.71014718513437    1.23313547320920    8.75453985386016
N         0.07409406386860    0.56109970148946    7.60144523761743
C         0.63807447939647   -0.72242802458578    7.22469083518850
C         0.30731245948211   -0.12040714249314    4.83638564833642
H        -0.57801120519201    0.51148912544992    5.01011779202388
H         0.11702259015679   -0.71309487133736    3.93871311573477
C         1.53073083679069    0.76877579648590    4.61637228464700
H         1.71406535144514    1.39794861114357    5.48477146710273
H         1.36155791667459    1.41268153277153    3.75791492298456
H         2.41958448976036    0.16847365531840    4.43225853786495
C         1.04082993770524   -2.37260727462450    5.55387114323653
H         1.51926828974980   -2.80156085320665    6.43569378870393
H         1.79224159383252   -2.24845019547553    4.76816907302656
C        -0.08611926945468   -3.28485269852328    5.08830614315589
H        -0.84340623753112   -3.33831751374559    5.86765421719855
H         0.29775481262916   -4.28417561509618    4.90323658393459
H        -0.53497715282747   -2.91158497482156    4.16897943050080
O         1.20650748382216   -1.34969351531493    8.08313370840832
N        -1.17901505594494    0.97135915159954    7.37712651030459
N         0.52462412085371   -1.06237390951346    5.93054642976858
Cl       -2.84269154810697    1.83616869875650    4.98603262847959
C        -3.71941349078242   -2.09731122130661    4.63082250089172
H        -2.78824575388460   -2.63161886615883    4.67856824583043
C        -4.89283969538773   -2.42735000115985    3.94361707828067
H        -5.06374463093640   -3.28268488421278    3.32431840641293
C        -5.77008561346657   -1.41414375240152    4.23526176140877
H        -6.77787475801288   -1.23308127736245    3.92137115764907
N        -5.14188418781184   -0.56102194038508    5.07453770105064
C        -5.70592756596486    0.72244813131397    5.45139366556829
C        -5.37507075169532    0.12027337379943    7.83964046311049
H        -4.48980110176512   -0.51166054111495    7.66581538623110
H        -5.18468876355092    0.71289268757682    8.73733894428084
C        -6.59850907176794   -0.76887637191890    8.05966512397158
H        -6.78190738500590   -1.39798179071463    7.19123031481038
H        -6.42930993235375   -1.41284616905161    8.91806891504258
H        -7.48733273450132   -0.16855874090003    8.24386529798186
C        -6.10860499650459    2.37252149901986    7.12234389538346
H        -6.58710851869735    2.80153425371693    6.24058567316908
H        -6.85995987448362    2.24830679737831    7.90809097981204
C        -4.98162147364103    3.28473206322497    7.58789272167732
H        -4.22441699374577    3.33828613749051    6.80847114454715
H        -5.36548385009512    4.28403085943812    7.77311346299100
H        -4.53266459823029    2.91136260172704    8.50713039687455
O        -6.27443061758070    1.34974272529235    4.59301961349531
N        -3.88874679101249   -0.97120047414389    5.29883596241730
N        -5.59240839665169    1.06231895493938    6.74555199315689

