47
CSD_code = RETNUZ | q = 0 | S = 0 | Stoichiometry = C14H22N10Ti | MND = 6
Ti        7.12001045675107    6.13340910318266   12.70947109119459
N         5.68423565544597    6.51971662769291   13.98102790443805
N         5.11901298931676    5.75476555187829   14.66562413198721
N         4.52215946439949    5.08630695702883   15.36527584457874
N         6.20241820477193    4.92635488673312   11.62658695658649
N         6.07445102787602    7.91381922320831   11.59826269435055
C         6.04823561400562    5.00976889311358   10.19552031776307
H         6.55629006182300    5.89217091453320    9.79470529895012
H         4.98107137226009    5.06611148191738    9.90882163619731
H         6.46944064297280    4.11862022190559    9.69787167915247
C         5.52412330700536    3.75617346985606   12.13058029510328
H         5.70275482022114    3.64321401772875   13.20256517956380
H         5.87573556792592    2.84334062157584   11.61918001124504
H         4.43387363160207    3.82280342950649   11.96239671431753
C         6.74475762025185    8.85231196506142   10.93750461463634
H         7.80500396283522    8.92366230882965   11.15621698331408
C         6.15050817558132    9.69694089547312   10.01097013871687
H         6.73819086891794   10.44174829874491    9.49712317978526
C         4.79430468175279    9.56114949125290    9.75943387735894
H         4.29863272242620   10.19744600793873    9.04109347887483
C         4.08989706809532    8.59060490058441   10.45428019247836
H         3.03169721194293    8.45301227819161   10.29507219098630
C         4.77180336029754    7.79292282510476   11.36186691468241
H         4.25608374991090    7.02743698111303   11.93311401353010
N         8.55579162787233    6.51969736099318   11.43797384841100
N         9.12139249123717    5.75469262560230   10.75385348113027
N         9.71868414986295    5.08632270420116   10.05455943134083
N         8.03750510641057    4.92624692051632   13.79231571441758
C         8.19190599760963    5.00968335922385   15.22336763431351
H         7.68407440299511    5.89218250186097   15.62426101999401
H         9.25912346369862    5.06582968055514   15.50990650705302
H         7.77064244810068    4.11862045739080   15.72112016470215
C         8.71568263689536    3.75601097605044   13.28830038898380
H         8.53702623897063    3.64308876917536   12.21632084104040
H         8.36401481769859    2.84319561677752   13.79969330926846
H         9.80593789134939    3.82257824819084   13.45645658892179
N         8.16538219554025    7.91374368185763   13.82086906315077
C         7.49509170870620    8.85224176275471   14.48163482246557
H         6.43485795311130    8.92365313693489   14.26286496245176
C         8.08940264528558    9.69698007502192   15.40802802979220
H         7.50172867664403   10.44176774489979   15.92191098063852
C         9.44564096959193    9.56127168636304   15.65942961131297
H         9.94133373377786   10.19756496485086   16.37775722903589
C        10.15001980090159    8.59068890451548   14.96460664464034
H        11.20823223074644    8.45311832638163   15.12374661224303
C         9.46805358764909    7.79290052579483   14.05716155771822
H         9.98378298703653    7.02750861786933   13.48579621717771

