93
CSD_code = RETPAI | q = 0 | S = 0 | Stoichiometry = C38H48CdI2N4 | MND = 4
I         3.88481704481801    5.38903302839480    6.37999984801550
Cd        4.67242414173259    6.66196183414742    4.12094600778864
N         2.76016910436466    8.18967437819250    4.10417891425750
C         3.06474114873007    9.61869289211842    4.31450930391087
H         3.77774939163052    9.94080200750387    3.54396522234265
I         6.68770083126924    8.15148852606794    3.11794107327802
N         0.46142080736999    8.74235672640768    5.29901279835826
C         1.81708919543141   10.47018294002795    4.20539682705148
N         4.45630840539454    4.96662254307728    2.36781366638218
C         1.91324334481836   11.72603520534476    3.62552240758999
H         2.87351957065779   12.05476835669609    3.25248431699100
N         4.08088782802094    4.43906704416453   -0.22534678884136
C         0.81960843941055   12.57292076807544    3.51509686487536
C        -0.40395118812449   12.13075619264921    3.99682629517117
H        -1.27401896351910   12.76699244545026    3.92110472744878
C        -0.52072982470802   10.87955507387166    4.56986770549247
H        -1.48272634713328   10.55123648125320    4.93588485396047
C         0.57837305149155   10.03762673090638    4.68642916402546
C        -0.14407758016241    7.76691562653534    4.38486615789931
H        -1.20311938195383    8.02928902409877    4.19670575133148
C         0.57098732052961    7.77461802892928    3.04999606216731
C        -0.15426004000493    7.54287727456433    1.88993359987720
H        -1.21816132395470    7.36457043628648    1.96676913529533
C         0.43834947204372    7.55360970264271    0.63547315367757
C         1.79763317249867    7.82595608977049    0.54989864117365
H         2.27426365463532    7.88136082611736   -0.41793475156104
C         2.54196534837170    8.04089789104612    1.69208962237679
H         3.59717293567323    8.27129300953639    1.61675505015092
C         1.94772472320586    7.98939815349117    2.94822287628055
C         3.70233314595208    9.79475489117486    5.69249180197179
H         3.95472593162740   10.83970101139877    5.85296591037827
H         4.61911574217631    9.20500970889482    5.77184153432537
H         3.00886285311857    9.47995254678238    6.47065473416886
C         0.97157634777954   13.93268717683645    2.90595162617186
H         1.43871103651043   14.61086026700987    3.62051920354426
H         0.00512579938369   14.34488350401065    2.62696724138113
H         1.60652556006154   13.89006150998895    2.02349947642695
C        -0.17324914445053    8.78801705179529    6.60436632869305
H         0.16922759145302    9.67999393552433    7.12682415125492
H         0.13273437061373    7.91432323192816    7.17975654222545
H        -1.27026956094741    8.80946110301498    6.55731441579232
C        -0.11180739128824    6.35387473374940    4.98006005624567
H         0.88445247731577    6.09860380758824    5.33290694215758
H        -0.40617874256177    5.63744434812771    4.21657865226870
H        -0.80262269702700    6.26506013771123    5.81360289234931
C        -0.36747528732321    7.27394772132288   -0.59618306043325
H         0.04806900441359    7.79195849421749   -1.45734429620803
H        -1.40110464999519    7.58380334279232   -0.46300660163870
H        -0.36162498909332    6.20440628446066   -0.81088798000553
C         3.56385908730100    3.81029816624292    2.57616380562826
H         3.78599137095965    3.37408738583425    3.55908787147941
C         3.76992657827927    2.74454589449563    1.52024133176291
C         3.70016072687676    1.41123915038229    1.89476012673853
H         3.51898650798384    1.17135112872502    2.93351008368491
C         3.85181282395451    0.37887038038520    0.98023788263595
C         4.08904685006162    0.70832909798149   -0.34632998775465
H         4.21730331379029   -0.07394754155315   -1.08057568439893
C         4.16998605521666    2.03063232597164   -0.73655118904371
H         4.36337246388168    2.26565861214573   -1.77303942617256
C         4.00905013216127    3.06196770416899    0.18067793696453
C         5.47577269615386    4.87528648442937   -0.38764199587328
H         5.91723518409688    4.39542813054112   -1.28153132896296
C         6.30591368058532    4.47199286495495    0.81081535982021
C         7.61996534552995    4.07044859674177    0.62145620266221
H         8.01495410342844    4.03408795652664   -0.38462944071857
C         8.43928426265882    3.71235759311177    1.68174917300040
C         7.90973007178670    3.74409024777237    2.96503281127579
H         8.52327714587948    3.45790372084867    3.80648811648800
C         6.60537060425011    4.14555825936032    3.17560240770417
H         6.20511969475335    4.15184551568793    4.18451305937519
C         5.80099556294384    4.53497112263446    2.11031171874147
C         2.11408855086058    4.29033501048760    2.56017587482931
H         1.96174179154714    5.05236841899383    3.32306656261138
H         1.44521067808878    3.45769159336471    2.76096525101616
H         1.86690225771691    4.71428920225547    1.58845982936670
C         3.74248967866347   -1.04872559832398    1.41946826067195
H         2.69317116666442   -1.33113191781078    1.51093492278219
H         4.21178813792983   -1.18989837976094    2.39051791408859
H         4.21164511875488   -1.71438749413509    0.69935516947818
C         3.25194137297157    4.73029542924740   -1.38003406760699
H         3.72230222804157    4.46377699153283   -2.33635855556717
H         3.02366620905193    5.79566584399078   -1.39404759692034
H         2.31598690766331    4.18101064463346   -1.28674963987851
C         5.57145003383070    6.39373515108356   -0.57341686483985
H         5.15890870121068    6.70281003731004   -1.53014570601204
H         6.61668069977299    6.69066196696067   -0.53793508209111
H         5.04598359660185    6.91657014546203    0.22169453291341
C         9.86535275368058    3.32081187995315    1.44824572781120
H         9.98466786810968    2.84512494632515    0.47750315038504
H        10.21302105352569    2.64081813560706    2.22213265164269
H        10.49829968302777    4.20845900688843    1.46946817849166
H         4.11337556762074    5.39362667512651    1.49966928098169
H         2.18648000185266    7.93742546768780    4.91929329296853

