55
CSD_code = RETPOX | q = 0 | S = 0 | Stoichiometry = C21H23N6OReS3 | MND = 5
S         4.73012631051545   -0.24324680905344    5.96369465835922
S         5.69749303389175    0.72258547927977    1.24104211309755
S         1.33514731832022   -1.27085933706618    2.00334236424648
N         3.68438474252455   -0.38933282329604    3.13313099758705
O         7.02077445218445   -0.38067007006306    3.80332110224214
N         5.44629639042700    2.05048246126089    4.31460143034733
N         5.36085103451461    2.34684523167116    5.63279205302599
C         6.68739278945403    4.14555337307378    4.23967319035322
N         5.77841309606798    3.21412005104034    2.28592638734320
C         6.43088084211579    5.47341423934338    3.91804951082886
H         5.66303557896435    5.70317397768269    3.19589622186898
N         4.93777514031707    1.73810950135239    7.77996121884923
C         2.68700860267138   -0.80675585502759    2.64198437746332
C         7.67760924895164    3.83705256453588    5.16830790303340
H         7.89417492895557    2.80347029182358    5.39218315312142
C         8.39246459654952    4.85216850422376    5.77466492538784
H         9.16622707892593    4.61125722222719    6.48831254782278
C         8.12189465785669    6.17624190827066    5.46702008463910
H         8.67765566980624    6.96697626915261    5.94870931036140
C         5.95661823729183    3.05407588459928    3.56431267742211
C         7.14261933401940    6.48451149168009    4.53748486681285
H         6.93421915914154    7.51571083857150    4.29355039277681
C         5.40685907625308    2.42471684709964    1.29873488103054
N         4.90488254118918    3.02517863965896    0.21292886010177
C         5.02263131556071    1.42349626524994    6.46815262512285
C         4.65411193623135    4.45289867211641    0.25757336585978
H         5.51778545760566    4.92449456948405    0.73496807600566
H         4.57222322014559    4.81412382693732   -0.76882164583991
C         3.39025250880781    4.80646361328994    1.03816577110945
H         2.50965440351803    4.37546754391776    0.56990123270621
H         3.26978895380997    5.88610207137140    1.07156292913546
H         3.46088254401161    4.43162508081732    2.05575943819201
C         4.52217667142995    2.27247601910254   -0.96367786833219
H         5.25796306580280    1.48041932043793   -1.11969444670840
H         4.55630915396795    2.94967646953193   -1.81961479431290
C         3.13121198083465    1.65493049177112   -0.84075553701594
H         3.08677675411712    0.99870744100834    0.02401722277805
H         2.91429033283545    1.06751215662318   -1.72809338214776
H         2.36900722982054    2.42266487570248   -0.73848624408468
C         5.39581523178386    3.05148117396763    8.18570000827486
H         6.48505891412684    3.12255729330446    8.14451983352843
H         5.05067081360711    3.24894535257021    9.19780691292637
H         4.98596189586158    3.79566472435028    7.50353349714909
C         4.54840552942273    0.81771720711036    8.77232568724745
C         3.36775973817555    0.09236473961395    8.64527055340601
H         2.74767907948138    0.22968698578306    7.77390574253219
C         5.32761523800129    0.66245829627342    9.91519632805163
H         6.24580637767718    1.22031173649518   10.01914552067374
C         4.93780030716761   -0.22013157074756   10.90540292874082
H         5.55269979229083   -0.33970395916867   11.78511667447287
C         3.77225762521785   -0.95469698974770   10.76774128929745
H         3.47361676754518   -1.64683998132264   11.54034552422898
C         2.99054082366749   -0.79465822756079    9.63619409158147
H         2.07530303173381   -1.35653653942702    9.52675865993555
Re        5.44443944482950    0.11264145910056    3.67535477734410

