69
CSD_code = RETQEP | q = 0 | S = 0 | Stoichiometry = C26H35N2O3PSW | MND = 9
W         2.41459950767479    2.30678992361234    9.09628988376643
P         4.83799489196196    2.54109320779667    9.28633223664056
S         3.29021991635950    4.61186257792181    8.24486260562344
C         1.80277055796385    2.17293722269672    7.23637237046394
O         1.44265110819277    2.03004220188217    6.14859784443689
C         2.93642285611056    0.61685352149985    8.24737300942012
O         3.21614956295137   -0.35499317537400    7.68807086529638
C         0.71539726296465    1.46791179022936   10.38730541505896
C         0.33891784652916    2.79945910383750   10.00859057047357
C         1.26484310033508    3.70243256373071   10.60590273735482
C         2.24504036080095    2.94484506714357   11.30470022376241
C         1.90234567458971    1.55959063795930   11.18921056988174
C        -0.11050608447964    0.23462908871613   10.17413839353375
H         0.51679403228661   -0.65411206700853   10.12854793127853
H        -0.67581603268394    0.29896433434642    9.24587526142140
H        -0.81764932627558    0.11254739287941   10.99748829611734
C        -0.94008725023579    3.19828372832207    9.33566012533429
H        -1.71696622195068    3.36954082299248   10.08419138060505
H        -1.28624926562250    2.42104956017183    8.65702866759792
H        -0.80995960695448    4.11674855632379    8.76540276747621
C         1.12109991692639    5.19250935290079   10.63410995144637
H         0.83069580546719    5.58237437856534    9.65858762006230
H         2.05223864257997    5.67281784919579   10.92898198259789
H         0.34828927783626    5.47082068165716   11.35420968731193
C         3.28021013966641    3.52442383567218   12.22518649940289
H         2.79643391869207    3.96003152076195   13.10260061960090
H         3.85832268571534    4.31322293717646   11.73586374106536
H         3.96739401906895    2.75247071883151   12.56482696737980
C         2.54182959258073    0.43491087454915   11.94450063153574
H         3.62603250123196    0.53939812664434   11.96857871467548
H         2.30706634451950   -0.52309370549857   11.48473389731492
H         2.17451796948455    0.41925749509461   12.97306711624712
C         4.84751886384815    4.34087121060145    8.97938904679034
N         5.83550347541612    5.07573480369019    9.25974246021966
C         5.95212936811205    6.49711869198997    8.99108881198093
C         4.85149950785881    7.27784060233166    9.71732751988434
H         4.99271170328449    8.34469064462260    9.56675217199793
H         3.87553907902715    6.99672636954914    9.32968093853219
H         4.88244841942999    7.06792538754027   10.78556763670489
C         5.87313022567776    6.75331262240144    7.48299612710680
H         6.01279390035857    7.81113153406438    7.27677874244440
H         6.64551743907592    6.18574866497029    6.96794757173769
H         4.90326692432183    6.44535597290848    7.10063612529990
C         7.32819014415408    6.91160581311428    9.52178679407142
H         7.51312269758586    7.96110176442250    9.31002183394889
H         7.38091099462801    6.75976438888270   10.59762255244723
H         8.10460703006194    6.31525520558804    9.04869373139982
C         5.88633234862036    1.97203720426495    7.91440279123583
C         5.40027468305856    2.17064192817356    6.62340081272011
H         4.43532896877408    2.64686366095525    6.48150407029068
C         6.14180120040160    1.75494032509604    5.53516409482257
H         5.76422664149526    1.91398114510794    4.53633720412340
C         7.36156181723323    1.12372871931960    5.72723702636464
H         7.93629499973480    0.79011876818317    4.87611758798364
C         7.83756771148948    0.91053593300006    7.00937913473803
H         8.78178449085285    0.40807481881926    7.15967836029723
C         7.10660972725684    1.33387639574130    8.10637601062496
H         7.47809137844789    1.15311992560880    9.10435886757431
C         5.94708142235740    2.21545361436170   10.76679496008051
O         5.78134190890574    1.23058073065672   11.45669546864291
N         6.88323361269186    3.15032149233272   10.90042207185511
H         6.78572878176100    3.99128794696732   10.30860099880280
C         7.81721799643070    3.17807504741763   12.00628245626931
H         8.81791081615680    3.37276782211648   11.60903344072109
H         7.80353766868210    2.19077302393816   12.47431903438362
C         7.43834088581136    4.25015307596232   13.02222018510482
H         8.16158237212339    4.26862684639645   13.83273272521913
H         7.41963099151882    5.22944932984203   12.54907557247477
H         6.45448609908746    4.04508844376306   13.43754647691073

