110
CSD_code = RETVOB | q = 0 | S = 0 | Stoichiometry = C48H59OPZr | MND = 12
Zr        6.32742290035771   11.95060595513862    2.02704253518794
P         8.73602419235263   10.14613168090731    3.52482595551794
O         6.18373648131849   10.38601057332525    3.05230758027174
C         4.75241091299882   13.21281418909794    0.40810653329682
C         3.92807333838197   12.53386746380912    1.32856824138966
C         4.09612962024709   11.15082669244945    1.12788412061409
C         5.04096438556801   10.97147914055639    0.09180089610286
C         5.44335375057290   12.25458404503791   -0.35167207337897
C         5.65060966992851   14.28889725637588    3.02662817964511
C         5.58232825729833   13.34663485605078    4.07078817793620
C         6.88525044333058   12.86624002880269    4.30605373535043
C         7.75268578671157   13.47325718794762    3.36804092308800
C         6.97784952323250   14.35234439446116    2.57050738511219
C         8.24255486583379   11.39273382657854    1.11035792021150
C         8.61109582523943   12.08853876211328   -0.13392095180420
C         8.42426319251930   11.46716714846500   -1.37456242022494
C         8.74667971197053   12.11752087366314   -2.54982345374709
C         9.26065557282903   13.40402451227181   -2.51805873453251
C         9.46480728060250   14.02737800718449   -1.29780211744816
C         9.15018862515841   13.37960707158238   -0.11821504278459
C         9.20747257190077   10.82774754823130    1.87026272284905
C        10.63967682009038   11.09688684774391    1.59706592452319
C        11.24860578161705   10.79751963310551    0.38268533987436
C        12.54683906308444   11.19952538541762    0.12835962714429
C        13.24803036000187   11.93962679224872    1.06393067302400
C        12.63833666038689   12.27339378597820    2.26115850205114
C        11.35363617627641   11.84591139888496    2.52796277818223
C         6.98710322063647    9.26301454009739    3.11723472014594
C         6.55187098356383    8.43402946237263    4.33902319931460
C         5.17700021315229    7.80687383811118    4.11384754680896
C         5.17980241914390    6.93437557253659    2.86595045556093
C         5.51169798343418    7.80271653067082    1.65858097243459
C         6.89195574860121    8.44399861487536    1.82278282375699
C        10.35420607665769    9.23590678466161    3.90547812384468
C        11.12701686111986    8.41338876993742    3.04659347506596
C        12.50961561290656    8.50819491076077    3.08625661107868
C        13.18881445293334    9.28671322939163    4.00677471623581
C        12.42070469933666    9.83201884801235    5.01935847867357
C        11.03113330654715    9.80245963029796    5.01479193239447
C        10.54895199972511    7.28066414379497    2.19548433681667
C         9.98664295470310    7.78895630093998    0.86727421607678
C         9.49976063569177    6.57131800167214    3.05946368410998
C        11.58767701152609    6.19853620032025    1.85006966657967
C        14.70551966282945    9.37737480268840    4.02751161799168
C        15.31633356294974    9.02449035051716    2.66681309727563
C        15.21894309811320    8.38430636839056    5.08141988343200
C        15.17567566546900   10.78948584523543    4.39377807514217
C        10.35538151025578   10.33185255629352    6.28800315266021
C        10.11162916100021   11.84140529090890    6.18866206327551
C         9.04192705618990    9.59966920720765    6.57517417149330
C        11.24738902491605   10.07955492133910    7.52116195185749
H         4.76063560424675   14.27892057516585    0.22236156134666
H         3.18551170554171   12.98523657033712    1.97554565687556
H         3.49834990216171   10.38004013355649    1.60014800750523
H         5.27893383200209   10.03607994889896   -0.40024345032458
H         6.03862708742881   12.46251951652959   -1.23113015884456
H         4.84546184905895   14.94019725743716    2.71383838510641
H         4.71325861008571   13.13738574613896    4.68452644171377
H         7.17206017524690   12.22746072642256    5.13068629113697
H         8.83510157387768   13.41851840910643    3.37248183987432
H         7.36413998524261   15.06636849530470    1.85203331273262
H         8.02902006097574   10.45815977750761   -1.40290912605559
H         8.59872292908923   11.61883232940846   -3.49724906540337
H         9.50991553447789   13.91255504184210   -3.43726917540973
H         9.88412369376187   15.02295528924558   -1.26619067785219
H         9.34803021025423   13.85950221757624    0.83241889013652
H        10.70136932251873   10.26053386265424   -0.37585707808277
H        13.00826852923146   10.94730212287453   -0.81594752907053
H        14.25619712159215   12.26769512042710    0.85453044530502
H        13.15643359536937   12.88478332404268    2.98606305337627
H        10.88332418316765   12.11249986762483    3.46266819395205
H         7.27510804640520    7.65278803886826    4.57309201253290
H         6.48328553430312    9.11013971748623    5.19351865104536
H         4.89928650427049    7.22069708837145    4.99249990234913
H         4.44506422040112    8.60941733836655    3.99206579571994
H         5.92444040132481    6.14173766767162    2.97262371710672
H         4.20307810485177    6.46401456562724    2.73328632753285
H         5.50141028184051    7.20369600566716    0.74439128235714
H         4.75354085705122    8.58032848080518    1.56711876074050
H         7.09234815361934    9.12175429511597    0.98072608221052
H         7.62658125285723    7.64673305063071    1.83364704002385
H        13.07840377531141    7.95230140085260    2.36587035827132
H        12.92457313175324   10.31913387366730    5.83411902585034
H         9.37060331606474    8.66915402235207    1.01207601204962
H        10.81311941293306    8.05779826738099    0.21361488936204
H         9.40336464311486    7.01317873308869    0.37362198272498
H         8.81194098401517    7.28919137054300    3.48661388488140
H         8.94978614093081    5.82974979698031    2.48207807669750
H         9.99778190741752    6.05898794582434    3.88179302737013
H        11.06400029518720    5.34083303300898    1.43059659833134
H        12.30436384826309    6.53466803295989    1.10485754949339
H        12.12405718824101    5.86633168646589    2.73615856294861
H        15.20288890708633    7.96711555684171    2.44088969716443
H        14.84736957828295    9.60878155881874    1.87790665864744
H        16.38174291452199    9.24615059151905    2.67422883678199
H        14.88132523946683    7.37623210226429    4.84961866367344
H        16.30688325176675    8.38839909096716    5.10625658919248
H        14.84939497897451    8.64785291620089    6.06963287966795
H        16.26330665396531   10.81959313500621    4.42555163079652
H        14.83207324563764   11.49932865791199    3.64735795620024
H        14.80644711302219   11.10122565463898    5.36640878216338
H         9.67042727380383   12.21163856889305    7.11197291992676
H        11.05140224182187   12.36469283728313    6.02282673210469
H         9.43725604342594   12.06800481735827    5.36801324094777
H         8.67278488054293    9.86892660229277    7.56296015710740
H         8.27901356371552    9.86437831835496    5.85215752362984
H         9.19659242127504    8.52347252029523    6.54557489690521
H        11.64132804890353    9.06584287751679    7.51439021649148
H        12.07494260481410   10.78090513880981    7.58505647558943
H        10.65486284214164   10.20789853304434    8.42464885598881

