87
CSD_code = RETVAN | q = 0 | S = 0 | Stoichiometry = C42H42P2Zr | MND = 12
Zr       14.32258717619994    2.32380360006034   13.63905436802024
P        16.44672074188817    1.49674690860263   14.84974781281179
P        16.94646891296902    3.32396572930248   15.89546349258161
C        13.43457089134911    0.25114746075435   14.89558160494714
C        13.46182860246912    1.31148445449586   15.82475979577582
C        12.53250877760876    2.28668620945007   15.40263912055174
C        11.91979038525415    1.81502700033384   14.21566587299797
C        12.47330897954514    0.55326506529909   13.91532541146018
C        13.60928458304046    3.21607226142403   11.36124306299466
C        15.01705328606360    3.31171524394221   11.44370800239565
C        15.53984187967919    1.99796822055021   11.49264246957212
C        14.45252185843079    1.09594635574247   11.44829916966472
C        13.26697660427143    1.85191179317673   11.34456071506556
C        17.82098299580039    1.34898093384011   13.63770960408662
C        18.51896586045929    2.39331873156599   13.01165423630411
C        19.60232381159505    2.09795493651339   12.19298001673889
C        20.00653027420106    0.79917225200776   11.93944356519770
C        19.26228271571802   -0.23172801221811   12.49815397197469
C        18.18738757975920    0.02298632923370   13.32909278808505
C        18.11004282873940    3.83206472906793   13.12048593146747
C        21.19355458040686    0.50109208517801   11.07512291334798
C        17.39211537390839   -1.12674103480589   13.87337268884332
C        16.75255296161485    2.70211427770522   17.61972089611276
C        15.69703605063042    2.90758624403535   18.51588557359900
C        15.76692088767697    2.34966856089452   19.78583177974472
C        16.84929021675891    1.59518901248848   20.20745873873682
C        17.89541170323048    1.41003624526317   19.31824620402117
C        17.86681765236959    1.95513927494238   18.04570962913098
C        14.47948484497443    3.72257109710057   18.19866130198980
C        16.87658793144747    1.00818411178610   21.58607929436437
C        19.03436474194148    1.73449047526341   17.13623080765844
C        15.60491681364371    4.53306032159172   15.50089074453254
C        15.72949882989893    5.83592793763195   16.17843758608643
C        14.59403516713813    6.59456227256952   16.46729742535673
C        14.70399915132897    7.81873775397269   17.09652049382249
C        15.94837705025530    8.30949808439713   17.45725189343661
C        17.08131112269893    7.56041357831933   17.18919516493256
C        16.97217078266352    6.33535429528994   16.55925079979175
C        14.75961024230316    4.30049774085605   14.46571398602986
C        14.05622482099558    5.40340222812694   13.79995844497778
C        12.66763003479375    5.39456812420914   13.60152756089502
C        12.04408015168036    6.41853793420195   12.91298677806183
C        12.78513608714226    7.46303608287022   12.38381537441946
C        14.15942068669645    7.48220644676607   12.56217510169115
C        14.78719409153607    6.47278047088182   13.26334226473558
H        13.96839040780877   -0.68593999477756   14.99876793046677
H        14.02350419028869    1.31510518326330   16.75011760979194
H        12.21172122164378    3.14423064886642   15.98435640548423
H        11.06648079410736    2.26404886874240   13.71811687273690
H        12.12460641716313   -0.12717183551787   13.14842304159167
H        12.93171009248058    4.04256431147451   11.18613690752749
H        15.59052183192672    4.22315764343696   11.32590661568201
H        16.58397151399732    1.72754655009458   11.40236212044428
H        14.53360423485281    0.01798810753544   11.35355341021435
H        12.27583117295463    1.45921629436118   11.15818166169252
H        13.61702938771489    6.21311111371793   16.20621644359671
H        13.81354081448245    8.39205675082512   17.31121477869926
H        16.03286102318285    9.26727279955923   17.94926536937336
H        18.05524546546415    7.93281105083338   17.47245904535326
H        17.86146664325692    5.75721683053757   16.34808689698968
H        12.06713867700848    4.59230652738770   14.02342236326935
H        10.97055843904907    6.40159467968580   12.78492460412843
H        12.29452154976802    8.25605008433929   11.84001555042304
H        14.74400369483293    8.29454159170558   12.15529081530577
H        15.85924564219218    6.49579784413482   13.40700731003339
H        20.13734100276404    2.91655016358838   11.73051808264836
H        19.53135619697696   -1.25573912144421   12.27759857857804
H        18.66388739016284    4.33620914370156   13.91273627116645
H        18.33048667156705    4.34644815181857   12.18516743209202
H        17.03671244175782    3.91669997406812   13.32848301059094
H        22.00371105329751    0.09262681824534   11.67939636795506
H        20.94046907360091   -0.23741553947998   10.31591308513697
H        21.55279093441249    1.40139799816094   10.58282075631216
H        17.39017460042308   -1.10931419852173   14.96380261078616
H        16.35308898703203   -1.05624196204763   13.53778118009360
H        17.80435542164052   -2.07533332686491   13.53719132974262
H        14.94343963844030    2.51201061833973   20.46838942558858
H        18.75629223523495    0.83134808417631   19.62424016969615
H        14.64509978139905    4.76247617477755   18.48351086524391
H        14.24978968514377    3.69275425241484   17.13691320648950
H        13.62267664392284    3.35225092839566   18.75937803771669
H        16.02929318002241    0.33864117641323   21.73053509464865
H        17.79370065427821    0.44877047775621   21.75251258271148
H        16.80863162661072    1.79630638428674   22.33526560211600
H        18.73102187445313    1.16067725070524   16.25794870073233
H        19.42917329978828    2.68772947544498   16.78225652885333
H        19.82813367011956    1.19463820117490   17.64722086928061

