22
CSD_code = RETXOD | q = 0 | S = 0 | Stoichiometry = C9H7HgNOS3 | MND = 2
Hg       11.67753468820203    1.61396537801093    1.66853731920647
S        11.17175538771875    2.94575537640235   -2.83676603405812
S        11.63199321322308    3.37195618390465   -5.86797093103032
S        10.03962799752972    3.00291478496931   -0.05103652000804
O        14.14957453758867    0.84925052760352   -1.66283976411332
N        12.26479594544217    1.80317061293347   -0.77569952624405
C        12.41966070857609    0.73260347625804    3.57845575972399
C        11.22930175874915    2.52114937679813   -1.13906307973202
C        13.13832226283480    1.50037767137013   -1.79188398938971
C        12.67289764069949    2.08228462511259   -3.07986634176643
C        13.36379224410164    1.92759789747440   -4.22879488667848
C        13.05124520178480    2.42181244208069   -5.51973041840697
C        12.07592237772952    3.49063001747861   -7.51726855861780
C        13.24331061011271    2.84196870070564   -7.79522771812114
C        13.80052032065949    2.23367653413263   -6.66349507156697
H        12.96805963462030    1.49048339302063    4.13370534115302
H        13.08375689813314   -0.09169885381870    3.32846101845976
H        11.58526009229983    0.37066531772935    4.17494707355894
H        14.27754432970159    1.34891933297651   -4.14586772574861
H        11.44593500894438    4.03570806373020   -8.19222749454491
H        13.68339210135530    2.80466417251420   -8.77545785446561
H        14.71839703999238    1.67374496861227   -6.67011059761000

