71
CSD_code = RETZUM | q = 0 | S = 0 | Stoichiometry = C33H29Cl2NO3P2Pd | MND = 4
C         2.35496518366428    6.92509857504103    9.31217687286836
C         1.06436972847747    6.41995244489596    9.43762892457243
H         0.69161874842370    6.09945485819380   10.40092609803089
C         0.25551197800102    6.31724037278634    8.32067337361172
H        -0.74536108772040    5.92273754415720    8.41898433386444
C         0.72654382638848    6.71212789460180    7.07876392407674
H         0.08885066494750    6.62628246391824    6.21158138993420
C         2.01225068583732    7.21087444190130    6.94741521210297
H         2.37929458871088    7.51426300434806    5.97886656682299
C         2.82735636125297    7.31308559557958    8.05921018129036
H         3.84275674415618    7.70968361481294    7.97167744512311
C         2.95649466288054    8.14374247430455   11.96207299438272
C         1.65127624348941    8.59336172467629   12.10070784067100
H         0.89394705751412    8.29350704473898   11.39096905068955
C         1.33683491480583    9.45634501271420   13.13714102777041
H         0.32430215028421    9.81742503098216   13.24390102819074
C         2.31489730854695    9.86689948071950   14.02705632529717
H         2.06214675686085   10.54540789904270   14.82833542844396
C         3.62276950272806    9.42821276918513   13.88067715506804
H         4.38755721091298    9.76936306961936   14.56258706643167
C         3.94410213627742    8.57098756703968   12.84780265108297
H         4.97594618575448    8.25248716918300   12.68200794099613
C         6.80185151606701    4.67193466957370    8.38268104427522
C         7.26798104602791    3.37677269372564    8.17724367379012
H         7.46487454130077    2.72720366742410    9.01985905977393
C         7.47322570038918    2.91826003824033    6.88878816998467
H         7.84349251525520    1.91594834977231    6.72881078194565
C         7.20259803443860    3.73862879446012    5.80516787624635
H         7.36705626518354    3.37351127653689    4.80225636600617
C         6.71757205035029    5.02082109384366    6.00520641495982
H         6.49920683410313    5.65509498513678    5.15958853491509
C         6.51472709608115    5.48778610968756    7.29008299573178
H         6.14678904958511    6.50250676840687    7.46174791340328
C         7.94287125399763    5.28559815050849   11.06430401987261
C         9.10911240210853    4.58691933902068   10.78989195699917
H         9.19815818762220    4.00784873649855    9.88300607184321
C        10.17517171819682    4.67060648759815   11.67043689721934
H        11.08848389978359    4.13564557913314   11.45482298458002
C        10.08212552346474    5.44591737016704   12.81330840037672
H        10.92107081763482    5.51066747678107   13.49014996017677
C         8.92322389034323    6.16046117946616   13.07963715390873
H         8.86227259841004    6.78522852221910   13.95849586727201
C         7.85893330522114    6.08451316176255   12.20471239885186
H         6.95280590640297    6.67507427307006   12.37033215020683
C         3.14196286980881    3.41782665098927    9.97295867275390
C         3.00136768125568    3.43531615012103    8.57627160372032
C         2.16147662076136    2.52156627121805    7.94778202003129
H         2.07093774115047    2.56435696497601    6.87439878921284
C         1.45663500896064    1.59930535812519    8.69738029820189
H         0.80209628927201    0.89726503186462    8.20469382549847
C         1.58434475465333    1.57086064040733   10.07266613423468
H         1.04169267518720    0.84721865888356   10.65889895132564
C         2.43044506561147    2.47009862992198   10.72127080395823
C         2.60289375519455    2.36872169282866   12.18736675613528
C         3.37033615440323    5.34076679388989   11.46578434352969
H         3.87482641436248    5.32381877410305   12.44027821285900
H         2.31623714718841    5.09466980740415   11.62089553685019
C         5.35630864942700    4.05340923205249   10.80095161098817
H         5.56630742555993    3.07468908973354   10.36061216750794
H         5.54026410036232    3.99031337970780   11.88235353381279
N         3.97975370536411    4.42587988161234   10.51728213067956
O         3.66564377468614    4.33533684249284    7.83052513662672
H         4.13404222041127    4.95621310234810    8.42349517270130
O         3.52298736349752    2.82683360188493   12.82228057512630
O         1.62232625983615    1.67387569488184   12.78164630849041
H         1.79706462008679    1.60684781916411   13.73360547552186
P         3.54552209295870    7.01641666406061   10.67499661763849
P         6.46105288262618    5.35402675948612   10.02564364439360
Cl        4.88729277645170    9.56766102576803    9.81262213759315
Cl        7.74272417986056    7.87329198143190    9.29468538324774
Pd        5.61022206689791    7.40832472514168    9.96876063370311

