71
CSD_code = REVBEA | q = 0 | S = 0 | Stoichiometry = C33H29Cl2NO3P2Pd | MND = 4
Pd        9.01432397888602    7.85010608869545    2.16039249191092
Cl        9.58388344735769    5.85251735359188    3.09270861638144
Cl       10.66143899426466    7.77443659649863    0.57433806617997
P         8.36051678763966    9.64246050391449    1.01814411011290
P         7.36784959419416    7.76058109491209    3.66191671358675
O        11.06478172582000   14.80737592308667    4.03507280425924
H        11.25894332137000   15.69707325993673    3.69990306382994
O         9.28526698084457   15.06863164002591    2.73111475813085
O         7.59087951477207   13.12443001894665    2.52489507279979
H         7.99314732492254   14.01622577662576    2.38750701821026
N         6.90100070177427   10.52060642430252    3.15485321064969
C         9.63668803616862   10.93501810764533    0.98083012311089
C         9.52416802043576   13.02885955560030    3.93448553717942
C         4.71859205971637    4.66177664249188    1.56467802338629
H         4.13537504644587    3.92491093208991    1.03283006261328
C         6.73672644357437    8.34516380109733   -3.07412616636397
H         6.34685744508717    8.01410417562540   -4.02528512840957
C         6.22752757788959    6.54905094885122    2.93423670540550
C         5.95791286597656    5.31578224410613    3.51731604209672
H         6.35828771113088    5.08012791369121    4.49235396181159
C         8.02741827856626   11.11652557789181    3.73467631066728
C         7.25728145919390    7.42500572707102   -2.17855822791893
H         7.26907222999957    6.37395202210687   -2.42536297085001
C         6.33750159886213    9.35404747681018    3.78165291762226
H         5.35999375904509    9.17079977579625    3.32326792787383
H         6.18443651774227    9.57499029607713    4.84335769437033
C         8.37270481946756   12.44514133627266    3.37963448699337
C         7.76605598665106    7.85208155874533   -0.96599075739853
H         8.18031380047517    7.12775955775154   -0.25963570884236
C         7.76300774050241    9.20876909433288   -0.64278589614478
C         6.43230941715950    6.77707340483321    7.49769457934941
H         5.53331734341301    6.64977041136372    8.08293014475625
C        11.71705671813068   11.68425870302406    1.93056581225015
H        12.55112151378015   11.52585333365161    2.59712365633647
C         7.50045204694869    7.27238964049791    5.40551781374388
C         8.74600948568717    7.09737227979066    5.99718394881013
H         9.63911342085220    7.20742703510433    5.39392763551249
C        11.65211016514449   12.83315000550507    1.15787934675606
H        12.43983550109525   13.56978186509967    1.21862444734754
C         8.79990725392245   10.47224561255595    4.69412518779494
H         8.53475617223289    9.47708894520642    5.02224985711610
C        10.29682924464278   12.33132538985281    4.87069343950962
H        11.17285546828686   12.80555732729441    5.28019752129426
C         8.82943841892866    6.75536910766406    7.33534022751586
H         9.79633096810766    6.61086225437483    7.79342847578065
C         9.91942753194659   14.37083532659714    3.50943461837429
C         9.91791673527321   11.07059031306026    5.26044955094031
H        10.49265511843767   10.52799516546056    5.99413742995084
C         5.76158436527114    6.81578262933900    1.64672254340641
H         6.00660553877800    7.76207763255360    1.17281399831365
C         7.20674524981746   10.12447618009925   -1.53116947399696
H         7.15251679799325   11.17228257026338   -1.27617615814421
C         6.70657237464023    9.69081728408756   -2.74594527702130
H         6.28648493849815   10.40640522110493   -3.43763096329045
C         5.00540624723166    5.88016617998848    0.96824559240476
H         4.65302580223485    6.09521468407123   -0.03019523496245
C        10.71277330623834   10.74023343994462    1.84572341304867
H        10.75826761077841    9.83066619921934    2.45146792192097
C         9.57244342178834   12.09215486430109    0.21338953878021
H         8.74427283614676   12.26352820758485   -0.45663849770771
C        10.58074952453767   13.03560824940660    0.30420361423572
H        10.52779396514670   13.93306064881618   -0.29471581836252
C         6.34050195490974    7.12023142982522    6.16185577987024
H         5.37322179138647    7.26068922982047    5.69671894667255
C         7.67535133041295    6.59338996828963    8.08403022077469
H         7.74163742242445    6.32117966059209    9.12696651394520
C         6.86621074933887   10.54097319452548    1.70888718382476
H         6.85847593211086   11.57657956017001    1.35907125950445
H         5.94941169318472   10.05254627323995    1.36625241123503
C         5.19907588560467    4.38221715769562    2.83289597434317
H         4.99467496871628    3.42456198962744    3.28830195476311

