47
CSD_code = REVDEB | q = 1 | S = 0 | Stoichiometry = C14H23F7P2Rh(1+) | MND = 8
Rh       -0.03614948166609    2.74921610459942   14.64677732539256
P         0.51033413509122    3.00500035356915   12.39717233234859
P        -2.30329288556608    3.35693145987205   14.49070613956231
F         1.76042948515829    0.14403229397996   14.58119805774449
F         0.90716136358975   -0.05866518590253   12.62570004781361
F         0.41101579519010   -1.47484382038907   14.15396538998807
F        -0.29577932024870   -0.28037142943962   16.46042723169832
F        -1.98662112007831    1.00847461613158   16.20317122282402
F        -1.98188217577239   -0.92114866524248   15.27553580799104
F        -1.45354335659544    0.58382302133921   13.28773725811917
C         2.02794410961031    2.92084970786887   15.51147234701385
C         1.54037905992578    4.23593991850804   15.22602141151280
C         0.39597968637108    4.45629622009083   16.01125035734024
C         0.17983819245543    3.28393826406136   16.81400124912256
C         1.22089927539836    2.37254800565006   16.53866380437127
C        -0.53713627614708    0.73351310249500   14.32217158857106
C         0.63318027179752   -0.18585310573218   13.93035433195981
C        -1.20198669055643    0.11082174853871   15.56324409423126
C         0.48356455194488    4.75306504095589   11.83448634751636
C        -0.44057551285054    2.22696187919063   11.04952695809264
C         2.25336647081222    2.59105807118815   12.02922561097708
C        -3.03970288307303    3.87274222757192   16.08448965748434
C        -2.56360346442509    4.87467908430728   13.49781226600759
C        -3.61880568257485    2.28844106645521   13.81655331592088
H         2.96179805548370    2.50574834075008   15.16784646221844
H         2.04246651437350    4.96961387627215   14.61450849214881
H        -0.12809981011772    5.39472184050819   16.11144276519862
H        -0.53009119202725    3.19631798405924   17.62098349848264
H         1.40649972999073    1.44330876643215   17.05287835953880
H         0.88294122581402    5.42611722847732   12.58798773659363
H        -0.52647023338451    5.06240693695888   11.58488779791347
H         1.10006235602304    4.82164806207502   10.93876935165403
H        -1.49932045247447    2.44667078176486   11.16947151947161
H        -0.30752068938217    1.15024117928210   11.03803723057656
H        -0.08655016391798    2.64543995217474   10.10759336895712
H         2.90121878114873    3.34102360400200   12.48071054044098
H         2.38500701468304    2.60509316753413   10.94752159202521
H         2.53360029773204    1.61103784057670   12.40200905660211
H        -2.50186994177137    4.72215332227067   16.49808602673125
H        -3.03428272050571    3.05554923894409   16.79937789128621
H        -4.07167395588733    4.16622141082976   15.89361139041979
H        -1.81653478669236    5.62868501425605   13.73430011866511
H        -3.55273985547234    5.27121004395317   13.72227513914828
H        -2.51668724981466    4.63424175966225   12.43873546176165
H        -3.39404014171710    1.98456273958635   12.79753444308144
H        -4.54434641635924    2.86391448819504   13.82842224146338
H        -3.74507991350719    1.39692244176788   14.42484536198898

