48
CSD_code = REVDIF | q = 0 | S = 0 | Stoichiometry = C14H23F7IP2Rh | MND = 7
Rh       -5.07842481694353    9.25727409212212   12.78129213712241
I        -3.79345482689090    6.91541695918013   13.21712829537499
P        -4.68694088653105    9.96635894610376   14.93181513012564
P        -7.06978470125012    8.20522047569581   13.23911906444805
F        -1.01386163503080   10.45725450194603   10.22548895987944
F        -1.16456209135105    8.83009795348699    8.83301415416082
F        -1.19174361270345   10.86725470026878    8.13455809516696
F        -3.75414632648166    8.04583240686091    8.11433226904759
F        -5.05354644338025    9.73671441102186    7.86008533423897
F        -3.15640827970321    9.68729520462265    6.86849989070349
F        -3.55782668448748   11.37145345235706    9.20814892186288
C        -3.51064085304487   10.28532134104069   11.77228533777048
C        -4.69112825672412   11.09253624921226   11.77010282069733
C        -5.68809840270378   10.37297750973515   11.06571111379580
C        -5.09869646923695    9.13975897987153   10.65315048014516
C        -3.59898914627387    9.36235992108361   10.56814662903113
C        -3.15155640006984   10.05680028314346    9.24375930586716
C        -1.61501354985047   10.05657415676031    9.10339434795264
C        -3.77637015285405    9.37503239854671    8.00701680481183
C        -5.95051960106220   11.03097442933334   15.73877913821694
C        -4.31182686836847    8.79126262786045   16.28243316756341
C        -3.20643628193187   11.03808422546597   15.06859146161338
C        -7.49452320447671    6.94534306460402   11.98326125453419
C        -8.61301538020776    9.20578505380174   13.23994179202693
C        -7.31380572045887    7.22632785026988   14.76663371485835
H        -2.55065808405946   10.65749245523526   12.10953396911261
H        -4.79147771127974   12.08861331801125   12.17703036698133
H        -6.68786564736846   10.71548115379739   10.84037266875019
H        -5.59209613332219    8.44513799604298    9.98288461075330
H        -3.00860874373409    8.44532301134470   10.65343065132470
H        -6.85437412826897   10.45096347012287   15.91906321802566
H        -6.19557288237809   11.86446759492800   15.08183309686036
H        -5.57201704421991   11.41461825719647   16.68547556601857
H        -3.39241692304013    8.26281342039469   16.03573434826545
H        -5.10587447126585    8.05650689768643   16.38866282665920
H        -4.18600436926695    9.33832315375860   17.21666906761897
H        -2.33582496585186   10.47151075499899   14.73857536798788
H        -3.06490589055440   11.34356260722766   16.10515872334245
H        -3.31475030611328   11.92043070102537   14.44010010344721
H        -6.69063291291369    6.21159086112251   11.93304826587380
H        -7.60514561882254    7.41918402845157   11.00862783523242
H        -8.42678741323035    6.44934338602144   12.25286453788705
H        -8.56395257072397    9.96575694835599   14.01801537366959
H        -9.47504045944021    8.56270451605582   13.41454074584887
H        -8.72406198562904    9.70058662657298   12.27644455056225
H        -6.50463260567917    6.50317112894704   14.85753521820472
H        -8.26646113172249    6.69969981417464   14.71225746667439
H        -7.31341740908470    7.88270670412425   15.63575179988717

