76
CSD_code = REVHIK | q = 0 | S = 0 | Stoichiometry = C36H35CuN2O2 | MND = 3
Cu        7.85564109310279   14.58340256365079   11.27562955932227
O         9.22482914484005   15.88268958100303   10.92306141469380
C         9.69289596744898   16.02516547380633    9.75313220656470
C         9.42635713929456   15.21502992359433    8.64285874303498
C         8.53582931889670   14.13516552373812    8.61516319597796
O         7.79693754166342   13.73738980487588    9.56939896654947
C        10.58196227457967   17.20220256221818    9.55380113460707
C        10.27951157228511   18.37434979981313   10.24294935202830
C        11.06638638893503   19.49999976892286   10.09302606825504
C        12.17689142210954   19.46434225327169    9.26535347961963
C        12.49544511539251   18.29681821512799    8.59123901850417
C        11.70247781832889   17.17197268492319    8.72972173195374
C         8.38162322351156   13.40060413432968    7.32993453169733
C         9.44316010679640   13.20299893564974    6.45126386720855
C         9.25294509176256   12.50734476345098    5.27152975800654
C         8.00329543529530   12.00262805247466    4.95095319536203
C         6.94465545697432   12.18131620414737    5.82622617842494
C         7.13493183735557   12.86774857897082    7.00991703546996
C         6.74677308008141   14.53971204471149   12.83284009903003
N         6.08763797259735   15.63053082363417   13.28137130047686
C         5.34907601103169   15.33287950311050   14.39574204395872
C         5.55674885344971   14.02227459445288   14.65857950996101
N         6.41132776577027   13.55370762222132   13.69302916592034
C         6.17397650297226   16.90850645607294   12.66832706241710
C         5.21748572219917   17.27386014044862   11.72362049841907
C         5.32028725041386   18.52145278513770   11.12723627085918
C         6.34730293726426   19.39506511537465   11.45353734057881
C         7.28876071923820   19.00006465374533   12.39476137494411
C         7.22665166660945   17.75780379036931   13.00601759611134
C         4.13013601334309   16.31339254034491   11.34937714187175
C         6.46884662568514   20.72918960805952   10.78237367443599
C         8.28707127368712   17.30828643788586   13.96089958220751
C         6.88798621157129   12.21898939758503   13.63004765180899
C         7.81025645951942   11.78739565925629   14.58275790182181
C         8.24489090831029   10.47161768266435   14.53602422436814
C         7.78892770759360    9.59429521829626   13.56321925757180
C         6.88646059734013   10.05808396723839   12.61617502679895
C         6.42447600576219   11.36495369408787   12.62898688443173
C         8.33441300148917   12.73523153848408   15.61974372630915
C         8.28160383965689    8.18024564146397   13.51188262007082
C         5.47221522272173   11.85426722229288   11.58449880200174
H         9.41320920026994   18.38271166543546   10.88847705548578
H        10.81816738682317   20.40786139541781   10.62476665894811
H        12.79685287548949   20.34194461279597    9.15007592961469
H        13.36835129462406   18.26358493832149    7.95464275677515
H        11.96935830572364   16.26131941402032    8.21365491465671
H        10.42669569477975   13.57359445947562    6.70017230617591
H        10.08446941723415   12.35566819123643    4.59786857897659
H         7.85757716427091   11.46572563275976    4.02469245302740
H         5.96976284594005   11.78216211476394    5.58441541180828
H         6.31900694070462   13.00767213641647    7.70387231179419
H         4.58903418768303   18.81268213723752   10.38667188135002
H         8.09465063670377   19.67349142893046   12.65141162455629
H         3.52015305376312   16.05811194301048   12.21600394096969
H         4.57084223054213   15.39273667354172   10.96607821945085
H         3.48659344094650   16.73961722778020   10.58466822331699
H         6.73465963461276   21.50102775440193   11.50209466883171
H         5.53853245196114   21.00735855830136   10.29350248198342
H         7.25420587791395   20.69157957742961   10.02676591154565
H         8.92009127300053   18.14097776511907   14.25575145033945
H         8.90403964323754   16.55880678486668   13.46339492590275
H         7.85445421146372   16.85755667256555   14.85327269091613
H         8.95966818958772   10.12768288879916   15.27002475501435
H         6.53636147266739    9.38564917305965   11.84639552798145
H         8.63504406074260   13.67335982020816   15.15514077785072
H         9.19364520214938   12.30494140253137   16.12714961125674
H         7.57315930211212   12.95780790647487   16.36758340438031
H         8.68958030644720    7.87368015867371   14.47187412116285
H         9.06853863188310    8.08981740840154   12.76283024794930
H         7.47818027332050    7.50090976951980   13.23520695697908
H         5.04741597023334   11.02060160002635   11.03206743609791
H         6.01008869516166   12.49930479620074   10.88828629730169
H         4.66494572284696   12.43517478523662   12.02803840683379
H         9.89444709686732   15.49094482098342    7.71130887938039
H         4.75265542274622   16.06586470047040   14.89935184833205
H         5.16397358864588   13.38999472471550   15.42797913939550

