79
CSD_code = REVHEF | q = 0 | S = 0 | Stoichiometry = C45H28Cl2O3Ru | MND = 8
Ru       -6.68733241955223   -1.22790636518146    0.06499352898389
C        -7.50455364273148    0.00796433782398   -1.04497541043922
O        -7.98273527688655    0.80713209542422   -1.71598807902697
C        -8.17880152382059   -2.31286070262260   -0.00339828176172
O        -9.08498568798164   -3.01963989905714    0.02011981156050
C        -4.78372381797289   -1.82256531264057    0.88555237049045
C        -4.73095827370439   -0.40696660855272    0.64497496098443
C        -5.67403179119936    0.20004634510505    1.53846813986095
C        -6.31388194103143   -0.82874354529107    2.29458783237372
C        -5.77140079281145   -2.10264661661337    1.87355221244153
O        -4.07876482531716   -2.75312551198422    0.16713353626351
C        -3.73496554881798    0.25556897827794   -0.21177184145266
C        -4.10179186256473    1.26705333980026   -1.09716341000740
C        -3.15243077565114    1.85879796947262   -1.90706013144723
C        -1.83061985267013    1.44612403398881   -1.84976345291207
C        -1.45890132868394    0.44251698653606   -0.97167416342297
C        -2.40311116326446   -0.14839054246247   -0.15248091510044
C        -5.86798591773643    1.64376758841910    1.73114471332700
C        -4.76757370049869    2.48334128487475    1.88532876589145
C        -4.95144435561329    3.83852402921967    2.08879595631538
C        -6.22927738016247    4.36886904825606    2.14206430388453
C        -7.32816755083917    3.53903052984825    1.98692272642973
C        -7.15128959054254    2.18488907518569    1.78092366480055
C        -7.21394617990898   -0.63054844696885    3.43777313657716
C        -6.90849786015503    0.31721343269951    4.41263325522360
C        -7.74102439435765    0.48749016021496    5.50300470539860
C        -8.88164975076672   -0.28565183367031    5.63823380782840
C        -9.19010039232632   -1.23225745662387    4.67467990100042
C        -8.36492135962397   -1.40359180345643    3.58050002644087
C        -5.97106338094651   -3.41155245763085    2.51710749004023
C        -5.94584839452768   -3.52400249748673    3.90494361101726
C        -6.11193087415864   -4.75901602819620    4.50348740189441
C        -6.29445934752177   -5.89197199211907    3.72858367993082
C        -6.30916487691359   -5.78764244007171    2.34744043443994
C        -6.15014684332911   -4.55555282111890    1.74271007723994
C        -5.67618073518366   -2.17875934345556   -1.50110554876243
C        -6.06363088325640   -1.98916442063369   -2.89599670059396
C        -7.35591090894939   -2.28939124018629   -3.33606008673691
C        -7.73032210622749   -2.07078072028639   -4.64629876825486
C        -6.81450494576378   -1.52752405574684   -5.53491553802797
C        -5.53366758558089   -1.19900581745140   -5.11904608152710
C        -5.16449756990643   -1.42975676868777   -3.80928565268316
Cl       -7.27893195098699   -1.24740965275709   -7.17472765090116
C        -4.51384397669061   -2.77265427173322   -1.15614659947721
C        -3.61531781750013   -3.51930343359584   -2.04552744353702
C        -4.11100899825471   -4.30037261417409   -3.08911186316142
C        -3.25146426237177   -4.99636277774238   -3.91493738093043
C        -1.88370258314384   -4.92513126794310   -3.69594416267601
C        -1.37250108319688   -4.17222032329304   -2.65119029439746
C        -2.23886551057011   -3.47737207915098   -1.83035726910540
Cl       -0.80661923467552   -5.79346496725686   -4.73116871860412
H        -5.13836217589403    1.57367840619812   -1.15811783336600
H        -3.44712942199259    2.63900330073866   -2.59275174178081
H        -1.09229095525552    1.90497012570881   -2.49009939878661
H        -0.42933456128950    0.11939130338382   -0.92255371839338
H        -2.11410237608428   -0.92357864033644    0.54401106275482
H        -3.76978233540934    2.06933681927822    1.85253210245985
H        -4.09199699025403    4.48169210403574    2.20713866801607
H        -6.36913338654654    5.42764082467833    2.30045356215821
H        -8.32630689777800    3.94929793517227    2.02105235356032
H        -8.00776150090812    1.53579404240677    1.64074658971057
H        -6.01207020655560    0.91317103503947    4.31771413537128
H        -7.49456617069103    1.22592541490916    6.25157791672210
H        -9.52954682123003   -0.15008895912698    6.49116406625338
H       -10.07986008804862   -1.83600439596590    4.77298855978742
H        -8.61560104976187   -2.13115050380124    2.81894818619207
H        -5.79280769109355   -2.64368031774998    4.51250902571287
H        -6.09605949187413   -4.83568685126997    5.58064508593212
H        -6.42511414873273   -6.85450706948667    4.20008031020734
H        -6.45075616488388   -6.66801998641154    1.73845870935179
H        -6.18034353811418   -4.47118133594806    0.66265496907911
H        -8.06883267290314   -2.70501784605070   -2.63572210537561
H        -8.72690473573702   -2.31360679044907   -4.98022930580811
H        -4.83483343050718   -0.76368272524401   -5.81606384095756
H        -4.17009996960281   -1.16747355514390   -3.47909664461690
H        -5.17577292671600   -4.36817162386082   -3.24770398284985
H        -3.63769209599747   -5.59863905003321   -4.72208557115652
H        -0.30733843835256   -4.13195329938162   -2.48469084116910
H        -1.84774693094915   -2.88778096059344   -1.01632492469801

