28
CSD_code = REVJOR | q = 0 | S = 0 | Stoichiometry = C15H9MnO3 | MND = 8
Mn        1.57369756996225    2.72759974582795    0.77726631012386
C         0.65075480067612    3.21746328469095    2.79081439201371
C         1.68053427313130    4.13344455733940    2.37398486957602
C         2.97453933577205    3.63638294263441    2.07627273273919
C         3.24981641123452    2.25340050956505    2.13773551877331
C         2.37236128059463   -1.19226002515776    3.37536319465270
C         1.31112993537107   -2.10082965574518    3.41458086844934
C        -0.01554080738716   -1.69488170521065    3.36764224207580
C        -0.38171838267659   -0.35550340370980    3.26403751841446
C         0.66633296633842    0.53888410697918    3.22153722042189
C         1.05708450706676    1.93181449717470    3.03544827921923
C         2.52667114951994    1.55551816004461    3.25388024511289
C         2.01490644626817    0.12468399395401    3.28337417081411
C         1.66402998623290    1.00823916633218    0.29351782291566
O         1.74739762625742   -0.11000897322973    0.05535137227508
C        -0.01939266554652    3.10275062061055    0.05908890898501
O        -1.05750717665498    3.33908104442003   -0.37464464791506
C         2.39127788603772    3.40610588318423   -0.66151592220235
O         2.93609076220695    3.86039966498275   -1.56747766768810
H        -0.38128200326267    3.54928693695844    2.87860200279051
H         1.50207580235988    5.20345764490979    2.41606798826248
H         3.73897030333731    4.33555911772611    1.73637334360930
H         4.24341199371633    1.90783136178872    1.86129925178907
H         3.39752455101476   -1.52878880756835    3.41154030682599
H         1.53000878734585   -3.15628473859583    3.48298825068002
H        -0.79004031368418   -2.44712245565256    3.40501482275759
H        -1.41784186817330   -0.05635186105645    3.21705735261868
H         2.94180684294117    1.84192838680337    4.23329925190961

