112
CSD_code = REVLUZ | q = 0 | S = 0 | Stoichiometry = C42H60N3O6Sc | MND = 6
Sc        5.35483438349110   16.51729699573607   13.27604715861045
O         4.58442400868482   17.82521793994615   12.19119356122282
O         4.06332181113239   16.29365919133545   14.60494311067859
O         6.69477416040507   17.45995052549044   14.17034327641927
O         3.00568989636135   18.42910963724769    6.96551776625099
O         1.64705544492334   12.10528651067192   17.20724675533359
O        12.16552539043584   17.27149640561093   14.60981642259397
N         6.39936723403081   15.88469851262040   11.12281927093173
N         4.35406164963420   14.40352397719257   12.46638494642104
N         6.94349938074584   14.64846121045874   13.63789716089595
C         5.69033380513507   14.81895486649861   10.39943789965967
C         4.31006225047721   14.54917034049954   11.00891100030750
C         5.07199993152038   13.18840507700778   12.87751872720200
C         6.10364360478770   13.49428824430538   13.96840471004462
C         7.82993148226447   14.37217819689044   12.49820734350632
C         7.77194497006238   15.49811722412061   11.46073502924606
C         6.44284543745447   17.10428349993504   10.28982041928796
C         5.07813801051127   17.60984363789126    9.90844375094306
C         4.21057600676301   18.00545592387169   10.94695208123697
C         2.97020239245610   18.61113632763297   10.60090385396031
C         2.64279507937998   18.71264454399269    9.26389223459145
C         3.48701008494294   18.27006940416636    8.24537107243323
C         4.71767546172890   17.73117801720704    8.57285196200012
C         3.84880520478823   18.08898429827256    5.89830483964734
C         2.06720382522019   19.15913561576195   11.69890004671035
C         2.85647599331798   20.19110224631995   12.51706775153331
C         0.81442421868078   19.84430249096398   11.14351594721347
C         1.61898927623268   18.01707231141038   12.62124425263616
C         2.97163562849007   14.35659636744023   12.98550013166281
C         2.91238441152332   14.25400059205768   14.48542279438419
C         3.45056409720262   15.32014609257619   15.23507593740670
C         3.28159065256965   15.30909971301280   16.64799775895352
C         2.67709235592186   14.21052995673890   17.22494357030230
C         2.20304367387040   13.13191043335117   16.47795093613997
C         2.30478489166432   13.16656786857250   15.09915600684431
C         1.09512022007072   11.02359115831253   16.50686639683110
C         3.73427391486842   16.50916830924756   17.47021465262942
C         3.39166318334165   16.36712120542712   18.95676858105509
C         5.25406813762195   16.68181568624729   17.34284816254281
C         3.03417670976478   17.76651334395405   16.93505248033534
C         7.75522852535611   15.00434432820487   14.81984108555174
C         8.63144388555240   16.20561093895630   14.58999100462621
C         7.99832171934601   17.43489057336427   14.31402739840052
C         8.80074065757162   18.60714435694214   14.22966140497220
C        10.17015694052081   18.47046086019709   14.33563488928950
C        10.79068747721474   17.23943016896236   14.54917370333615
C        10.01244792992681   16.10578474911601   14.69611642642491
C        12.84004704859675   16.07582556991535   14.89396322595438
C         8.13341530588124   19.96699335730019   14.06592628021026
C         9.13988321063905   21.12207361552361   14.08097101490754
C         7.14779356772290   20.17410548173524   15.22483730858628
C         7.36901529898094   20.01545150743302   12.73585220357899
H         6.28977125255180   13.90514821903562   10.39789047847635
H         5.53978956961492   15.10345167771032    9.35105088349536
H         3.66272706695748   15.40104483878545   10.77916222643675
H         3.87732032415878   13.65135612078683   10.53277646463293
H         5.55764055940621   12.72967002073946   12.01278896943896
H         4.37135450954028   12.44696258344637   13.28008742296319
H         5.56572326067561   13.72681533961989   14.89253248484090
H         6.71764209427366   12.59354130034199   14.14611824845833
H         7.56171181534065   13.41806024416179   12.03806647144398
H         8.86996269272432   14.28257785368134   12.83449711170487
H         8.27095446010623   16.37636692382494   11.88145917680708
H         8.32954737841187   15.18568736974101   10.55993212614540
H         7.03297205020725   16.90858040997247    9.37839922983799
H         6.95336851645984   17.87906159928353   10.87244160289582
H         1.71198124210370   19.15155819561254    8.94768092851206
H         5.41748640764220   17.41893340022561    7.81085645873178
H         3.29314983878867   18.32697166434902    4.99218377360339
H         4.09360094834477   17.02010835746241    5.89813807655776
H         4.77732864175058   18.67069808773145    5.91435920008239
H         3.19927543034609   20.99860499692853   11.87301543401717
H         3.72010902842918   19.72067376856321   12.98249323752508
H         2.22545458898237   20.61037313986308   13.29813901156470
H         1.07816170103323   20.67472477434678   10.49321711232346
H         0.22549143402052   20.23722853390365   11.97003256658357
H         0.19238662431016   19.14304239165104   10.59187858524178
H         1.09606098648739   17.25182230392920   12.04777225599890
H         0.94092656071907   18.39685631680138   13.38306511079590
H         2.48131989969508   17.57490240571781   13.12180860982212
H         2.43465084862609   13.50559036651346   12.53319140614133
H         2.47433805398099   15.28287521452903   12.67778031993437
H         2.53856705660193   14.14367940105620   18.29051479917181
H         1.90390762223095   12.37369772635553   14.48389367381184
H         0.70012416184557   10.34843314724955   17.26488435404434
H         1.85142716216675   10.49461981534975   15.91471982542995
H         0.27937521158401   11.34109468491673   15.84763715248386
H         3.90607603171020   15.51843468803322   19.40180662319655
H         2.32044923846260   16.25056340167179   19.10175975239283
H         3.70774108741534   17.26514698852626   19.48402827522596
H         5.76619299356960   15.78193980226007   17.68319511204951
H         5.58729918806530   17.51736756390773   17.95536889303206
H         5.52618494592339   16.88803867662240   16.30683793491711
H         1.95391345011519   17.65141757106273   16.99983333734868
H         3.30876013108364   17.93638635509464   15.89614994343360
H         3.32901847803795   18.63569686141843   17.51953756973835
H         8.37736696646322   14.14242045229478   15.11514665832111
H         7.06138481279620   15.22717813950240   15.63796323288003
H        10.82449215870389   19.32239413001215   14.26405011531197
H        10.45336860891205   15.14299640705277   14.91177550158894
H        13.89884540959118   16.33018049298157   14.92022410775441
H        12.67208527279816   15.32014915693108   14.11728813901489
H        12.54460289495297   15.66471548650954   15.86582366408760
H         8.60370049716466   22.06481969114774   13.99107708269642
H         9.83543294284551   21.05113725906797   13.24780835614693
H         9.70027928879181   21.14063192138977   15.01247012267954
H         6.67223324417941   21.14923762104674   15.14127570589488
H         7.67126596998015   20.12058928598569   16.17747763594781
H         6.37609557695515   19.40758884810065   15.20322096382942
H         6.91725127683021   20.99630213361914   12.60090541424665
H         6.57319827263086   19.26944130873015   12.72876276495801
H         8.04826242210862   19.83391315520342   11.90306259687976

