34
CSD_code = REVMAJ | q = 0 | S = 0 | Stoichiometry = C12H18Cl2OPt | MND = 6
Pt        3.63665314984644    5.19166780283697    6.71417200619050
Cl        2.12646798366552    4.78606851895478    5.09157325460643
Cl        5.10604982421849    4.07560231342852    5.43286912493954
C         2.49206070265337    6.79168204546029    7.73560434629156
C         2.05706987407564    5.54650642939283    8.16264859333251
H         1.14853334931474    5.13370624965052    7.72890272413554
C         2.45631207243702    4.90287126401314    9.47171445474292
H         2.14114777879587    3.85821399924506    9.43315260339895
H         1.90081041953782    5.37609771403593   10.28787604772946
C         3.97094606094708    4.95179966686846    9.77301124451867
H         4.22099642443796    5.83649702553872   10.35931294981855
H         4.22258746427028    4.08333263323507   10.38321242325631
C         4.83212964636290    4.93036266017919    8.52763335576519
H         5.39906886984867    4.01409684592838    8.37283227893143
C         5.26967052117144    6.06110503635627    7.86024622096041
H         6.16755278076061    5.96869600153677    7.25103712992146
C         4.89337916243830    7.48218007203349    8.18827620763933
H         5.09795785334188    8.09283859476353    7.30571905396899
H         5.53464879504591    7.84805666768346    8.99660301251679
C         3.41289568993777    7.66708029682768    8.56502548025851
H         3.24017878738510    7.47179217342302    9.62251348465341
H         3.14842458982975    8.70958723737241    8.37551548245578
C         1.91159034494750    7.51647245095582    6.54646182825779
O         2.62103414374837    8.28078195390377    5.93149430330370
C         0.42732776684005    7.36867356457945    6.27523114520510
H         0.16116796404959    6.30979212749109    6.27545656948495
C        -0.31868030694337    8.07800807971065    7.41203824103629
H        -1.39095902006242    7.98778279134224    7.25852184646383
H        -0.06817170234223    7.64535175449004    8.37850079904467
H        -0.06244235161991    9.13534842623213    7.42607197820846
C         0.07561598194596    7.96608328020085    4.91817543274648
H        -0.99588931229730    7.90769569190568    4.74595119085828
H         0.38842357774294    9.00608384734794    4.86999402843630
H         0.58884111366586    7.41658478307765    4.13395115692075

