82
CSD_code = REVMAG | q = 0 | S = 0 | Stoichiometry = C33H42N3O3Sc | MND = 6
Sc        1.55109101637054    0.41791610399885    4.32565582097199
O         1.74159247003448    1.58206910471762    5.77230088761512
O         2.59792788019206   -1.06923528953036    4.75100605296802
O         2.43674114671024    1.25058965363083    2.90923278306099
N        -0.31307220911051   -0.47148022002313    5.49726305903960
N         0.38962448743722   -1.02646763899894    2.84165241597335
N        -0.38978115270146    1.56286842412064    3.57241338455306
C        -0.49634706895865   -1.84082310944276    5.01114218142873
C        -0.61020458174110   -1.89336280690945    3.47999710952818
C        -0.21247353902467   -0.17592451825640    1.81252485804402
C        -1.06724642105916    0.94378410061373    2.42515480258818
C        -1.28276404181214    1.67806544227792    4.72751186408088
C        -1.54942095205967    0.31369728825500    5.38127976036805
C         0.17050668470651   -0.50498387203073    6.89524765054598
C         0.28591154225381    0.86259320381640    7.51202862892266
C         1.11704369239492    1.82800214813653    6.89707573389386
C         1.23353919523051    3.09349833315665    7.52037193317176
C         0.54628655048209    3.35380362854654    8.69091565694388
C        -0.27529341537126    2.40857155134736    9.29038825130999
C        -0.39153234605568    1.16720248690742    8.68101782232396
C         2.10261972910783    4.13909990921830    6.88254349336781
C        -1.00998058109686    2.70360105655120   10.56536775371470
C         1.48461294632401   -1.82223063974859    2.24389234258547
C         2.09204911266346   -2.80656357159216    3.20599787207873
C         2.65123476734216   -2.33400173860893    4.41463064657860
C         3.25251443867592   -3.28101527379955    5.28044460146224
C         3.27310361702155   -4.61694421636613    4.93396562954261
C         2.71286285035837   -5.08305667433310    3.74922147439870
C         2.12727665361801   -4.15875709544614    2.89978332531695
C         3.85019503664944   -2.80366756770437    6.57283641476475
C         2.75931450490622   -6.54340498300750    3.40718288785787
C         0.14030020748847    2.89953611633115    3.22339208151702
C         0.98705194813468    2.89227083861685    1.97965915046237
C         2.12912123122635    2.06167710356408    1.92792165475281
C         2.92775577128980    2.10607275716483    0.75826159347023
C         2.57798861592787    2.94006896879080   -0.28445044386282
C         1.44900955046627    3.75110418579457   -0.23668685963873
C         0.66733342272999    3.71017630403112    0.90622331602320
C         4.14312878407111    1.22754012537743    0.67703552283004
C         1.10663619628387    4.64856547261970   -1.38954407272990
H         0.37403125490860   -2.42706764153380    5.31461566940272
H        -1.39094592166350   -2.30652890149983    5.45936821195509
H        -1.61216386113643   -1.58384669786703    3.17145775356500
H        -0.47722184673835   -2.93465558169743    3.16197942707645
H         0.59508919788942    0.28036664659545    1.23549466992691
H        -0.83173089294735   -0.76890106858108    1.11758832356917
H        -2.03228534820377    0.54158684278656    2.74431417973749
H        -1.26556713573789    1.68956428062436    1.64565918698280
H        -0.80282803283511    2.32754063128948    5.46313993139953
H        -2.24386079508659    2.14056364240220    4.44382861027113
H        -2.28193574698286   -0.24361610639538    4.79157820236115
H        -1.99026737876871    0.48753529493655    6.37051324635104
H         1.16268496179693   -0.97633710943230    6.88216589741548
H        -0.50754260217497   -1.12230776951466    7.50834805156088
H         0.65471804215570    4.32803871381221    9.14878110330945
H        -1.02058812108161    0.41315054621152    9.13815232542192
H         2.70975878469165    4.64648988353937    7.62964728150420
H         1.49309705198949    4.89017100320620    6.37641500605898
H         2.75318283568575    3.66910905130024    6.14697263437797
H        -0.90657564171111    3.75099826346842   10.83708702721583
H        -0.61553281396786    2.09726878429593   11.38101755906700
H        -2.07010246983463    2.47358288946312   10.46313572381113
H         1.10949641702644   -2.36479532857768    1.35980067067682
H         2.25900246795740   -1.11326047495264    1.92069310266204
H         3.73903728636812   -5.32273067455165    5.60871597740910
H         1.69411090483718   -4.49665398434826    1.96620657670408
H         4.81129471325776   -3.28051702547419    6.75435313555899
H         3.19262345957585   -3.03943224438319    7.41165457911482
H         3.98409970115760   -1.72409038420359    6.53216628302144
H         2.17178247356226   -6.75231887077903    2.51627737161494
H         2.37195712894609   -7.14405187737386    4.22931479570675
H         3.78646307030600   -6.85778075819350    3.22177328938938
H        -0.69532652861236    3.60673260762054    3.08809184589324
H         0.75287852133186    3.23483477856720    4.07133882783419
H         3.20314730898198    2.96025921908706   -1.16721965860698
H        -0.21132237665792    4.34039590545088    0.97032213657711
H         4.99098243909724    1.77614663677308    0.27131378429060
H         3.95538709609624    0.36915938989474    0.02912665922155
H         4.39209578270476    0.86194537902690    1.67190315857575
H         0.13448139215866    5.11366254576205   -1.24421884802863
H         1.08884681439576    4.08703599070349   -2.32284463858072
H         1.85209066614877    5.43739848075549   -1.49108811319973

