29
CSD_code = REVPAL | q = 0 | S = 0 | Stoichiometry = C12H11I2N2ORh | MND = 6
Rh        0.88181981854701    1.00375272051179    3.31087896999727
I        -0.10743860339302   -0.84447315450791    4.96700053374453
I        -1.15984334624214    0.82859043292859    1.47105266277617
C         1.68952917306743   -0.46868018215255    2.55099050435577
O         2.14440289136848   -1.40088690993434    2.08153657072060
C         2.48138927962483    1.29446065100751    4.66759549444513
H         3.01070614579397    0.36715936407637    4.88711774988703
H         2.09250268849892    1.68093452539007    5.61246615761523
H         3.20648943212852    2.01321080227542    4.27422501914054
N         1.65163236427704    2.44604820025039    2.13549168194658
N        -0.04767867257526    2.63769429883768    4.10544863264817
C         2.51263944385893    2.25320486573675    1.13683774346880
H         2.87169068003843    1.24395159968997    0.98108768658740
C         2.93903039340291    3.27414017914503    0.31045357878381
H         3.63061232395448    3.06286281713195   -0.48842720025024
C         2.45648032714782    4.55695207002004    0.52784735587395
H         2.76429179760578    5.37794922206689   -0.10022494900644
C         1.56649388647350    4.76146936473846    1.56365656762054
H         1.17327406243029    5.74670836644422    1.74982693865124
C         1.17269408367056    3.68652829180548    2.35874153941324
C         0.21323978190420    3.79347902088120    3.45765455953303
C        -0.41980402510118    4.98238827958092    3.81186354443484
H        -0.20482186465040    5.89370449929021    3.27943355793008
C        -1.33890832038935    4.98566768455996    4.84439104135528
H        -1.84383381826231    5.89706322100894    5.12395098705229
C        -1.59825094425971    3.79399898118155    5.50158447461752
H        -2.30964200267144    3.73965990805347    6.30905387641788
C        -0.93091816445776    2.65024505222171    5.10142709313595
H        -1.12767881179118    1.70941582776121    5.59873762710558

