22
CSD_code = REVQEO | q = 0 | S = 0 | Stoichiometry = C5H12Cl2N2Pd | MND = 4
Pd        2.27904920891736    2.88172436482948    0.32190947746203
Cl        2.97722148124229    1.23843367128923    1.64130581145837
N         1.44820691483608    1.58785287425471   -1.10533222180444
C         1.82491873442898    2.10249175766955   -2.42118282271212
C         0.00330597838793    1.59148811007263   -0.84435794102225
C        -0.67113523937517    2.88176430914757   -1.32147249538606
H         1.82199632255963    0.65253327355936   -0.94557889366006
H         2.83503299175829    1.74732946677967   -2.64159277001013
H         1.15291565864997    1.71496273696746   -3.20004568337260
H        -0.48500677905164    0.74809922904536   -1.35614052300097
H        -0.13693871182078    1.46632696580208    0.23935394839508
H        -0.72255118658915    2.88176698733004   -2.41182756424474
H        -1.69923461452235    2.88177005028789   -0.95610739383519
Cl        2.97723364421407    4.52517689017242    1.64133452908678
C         1.82492921361555    3.66101452316133   -2.42117301488091
N         1.44822692851535    4.17564175845990   -1.10531482516494
C         0.00332392967090    4.17202819996560   -0.84434918009007
H        -0.48497624707163    5.01542465237984   -1.35613070302191
H        -0.13692310190228    4.29718749076407    0.23936318165505
H         1.82202850164215    5.11095561082775   -0.94555293462008
H         2.83504771162343    4.01616871142881   -2.64157982482083
H         1.15292866027068    4.04855836580560   -3.20002815641015

