83
CSD_code = REVQEP | q = 0 | S = 0 | Stoichiometry = C42H34Cl2N2P2Pd | MND = 4
Pd        8.48263245419216    1.94283047845573    6.20521012956871
Cl       10.39717285601847    0.87995929314647    6.76154433351539
Cl        9.14985595426742    3.84230024825662    7.27935314670064
P         7.77563224958973    0.31995461946939    4.86271021087710
P         6.70891048332075    3.19737387501536    5.59427581875694
N         7.58256736674373    1.10378409875984    3.36090013960496
C         8.66813726829182    1.34135753005695    2.53261425092967
C        10.00525257982839    1.02666076150573    2.72555495854248
H        10.34022012257148    0.53469954424825    3.63122293852582
C        10.89246872656705    1.41294840042539    1.74166609878727
H        11.94336057117276    1.19916170423056    1.86219442469269
C        10.45942742581362    2.09230891035499    0.60011911391970
H        11.18647187485916    2.37146201017516   -0.14821004309680
C         9.13715211936193    2.43629801774229    0.42546261346231
H         8.81476641086622    2.98977555579236   -0.44334681813727
C         8.22188056438959    2.07524347439306    1.41359666190141
C         6.83676994273847    2.36266781291912    1.62827590805738
C         6.50268035357703    1.82417225410971    2.84318015471937
C         5.27468078425551    1.96938458716484    3.59916996812005
N         5.26737907281768    2.56207388509244    4.87433311457553
C         3.97127908281181    2.44593194701687    5.36131313405559
C         3.41729965434228    2.76019978981866    6.59490325342856
H         4.00451811702189    3.17912087005725    7.39279824271110
C         2.07557253267034    2.50417301674358    6.79462626449056
H         1.63651877106286    2.74078778784012    7.75227980232603
C         1.27785262071901    1.94295051653096    5.79872787069230
H         0.23248416634422    1.75973916751504    5.99754435124806
C         1.81570580815631    1.61409702262040    4.57598115366767
H         1.21210411250716    1.16809219847588    3.80015434813677
C         3.16911624540207    1.85763575919585    4.35566939459070
C         4.01861524111118    1.57105404567935    3.24500589750914
C         5.96021120084099    3.15329982152204    0.72096237322525
H         5.69317385187103    2.56681783321296   -0.15896021779707
H         6.48161133250170    4.04655698192250    0.38284278179545
H         5.04790050849945    3.44511204966617    1.23425700453575
C         3.60848016310237    0.89255402856994    1.98472881102109
H         4.48161781428056    0.63433691104013    1.39150624702688
H         2.96239539354606    1.54010670804641    1.39216719965685
H         3.05141988341964   -0.01460208101271    2.21461856790532
C         8.51563624885176   -1.27424390793259    4.40380250711534
C         9.13021963148760   -1.98189944670345    5.43141994663939
H         9.21237470452982   -1.52611746391179    6.40976687888590
C         9.66207457098259   -3.23344627958432    5.18064325317133
H        10.14882329365462   -3.78041870604685    5.97388008755765
C         9.57681265182492   -3.77844977283079    3.90963810300113
H         9.99709736646086   -4.75328725321243    3.71123162628307
C         8.96014995989431   -3.07359443078136    2.88790052982367
H         8.89909743094529   -3.49975876910200    1.89716458036318
C         8.42486945183453   -1.82155551340725    3.12895335708400
H         7.95634370987813   -1.26868431016119    2.32694702718633
C         6.11760726430458   -0.24465866616776    5.35289566499506
C         5.27461421223100   -0.96963078109102    4.51963415641829
H         5.58045410766742   -1.19285283210404    3.50755353776473
C         4.04439741143551   -1.38778659561285    4.99212023865222
H         3.38102115305766   -1.94218385904911    4.34504188962436
C         3.65944718290749   -1.09971445199996    6.29205915683984
H         2.69338708090707   -1.42115411536491    6.65038066845586
C         4.51176032008724   -0.40578349787737    7.13504053604855
H         4.21494632310106   -0.19376963920142    8.15099869331539
C         5.74245928047767    0.01667052385395    6.66684198183317
H         6.43940142441094    0.55313569954531    7.32065293028328
C         6.09478663228749    4.27879835225947    6.91780675840493
C         5.57380782710298    5.54881265834861    6.71784978724524
H         5.49744623695693    5.95954298417884    5.72293666228593
C         5.16929161305367    6.30145993750991    7.80843977404805
H         4.76897584351892    7.29244761421363    7.65311241407518
C         5.28831602154712    5.79597579169416    9.09106032587515
H         4.97856024879687    6.39204044586404    9.93650000404640
C         5.82141956679404    4.53137936304515    9.29486217616318
H         5.93075755095493    4.14379791082862   10.29665140620676
C         6.22673933325037    3.77638689771691    8.21297520085520
H         6.67558907933536    2.79470955894106    8.36104770986792
C         7.30185159162811    4.26621566888829    4.24839418425680
C         6.44600706772839    5.07158353829749    3.50110633100238
H         5.38151131216509    5.05497529358527    3.69324793532170
C         6.95623366089026    5.86547982002359    2.49139831115010
H         6.29284401879973    6.49936495807852    1.92061998285441
C         8.31237273864183    5.84304360778588    2.20527324426300
H         8.70504027087379    6.46218335746331    1.41229574579600
C         9.16191119096671    5.01952021512485    2.92466066985441
H        10.21452680377503    4.98578041996199    2.68827911641789
C         8.66182609578238    4.23373457211624    3.94722721113668
H         9.34039483279242    3.58966966704163    4.51903409327085

