129
CSD_code = REVRAN | q = 0 | S = 0 | Stoichiometry = C59H61B2IrN2O2S2 | MND = 6
B         0.72100134174022    8.56393564029785    7.91178659424382
B         2.73654344098160    2.87008605536413    3.93490990233418
C         0.18040684209012    1.23902085100253    9.45845402203079
H        -0.56054422431625    0.54410154024801    9.08815067378436
C         1.21840699725582    0.80287591639271   10.26016859058767
H         1.28952207129264   -0.23816390401819   10.53077776787959
C         2.16217439962832    1.72515244244219   10.70096102266750
H         2.98611179774032    1.41136901305347   11.32368038933277
C         2.02630968024326    3.04440919319789   10.32621079575649
H         2.73038695079257    3.79991033480237   10.63824393465558
C         0.95020878221623    3.41844418300941    9.51864800898838
C         0.68156899938343    4.73581308082754    9.04336266796439
C        -0.43316831950024    4.93290989731248    8.23953327837681
C        -0.51198759215760    6.26722683492356    7.82305721985706
H        -1.29749231758183    6.65782621598517    7.19786095355589
C         0.50875378273904    7.08412294611464    8.27311400588085
C         1.69085464538097    9.44359807278460    8.77534017612427
C         2.78831657763520   10.10002008961686    8.19003815744402
C         3.66381958849821   10.83574715970226    8.96931730275768
H         4.50546399266702   11.32812026415557    8.50085172733104
C         3.48659248842431   10.96231731537394   10.34095574205426
C         2.39961480402116   10.32905343055574   10.91644997927287
H         2.23072087944677   10.42104903124504   11.98105668699506
C         1.51146494892625    9.57687563514892   10.15882647220575
C         3.05006037492835    9.98218435587664    6.71711908449323
H         3.80930824894487   10.69493282725465    6.40309676863974
H         2.14082733423476   10.15963381042032    6.14787916491368
H         3.40422315758543    8.98015157755110    6.47599920552397
C         0.34183406804808    8.96220829280231   10.87619303028970
H        -0.35571317962981    8.49722243049280   10.18639516044426
H        -0.18743774680826    9.72465105936162   11.44745243498113
H         0.69175484402621    8.20532892812612   11.57787312925029
C         4.45190423684116   11.76474570899030   11.15989407389279
H         4.11716231801074   11.84313834419453   12.19138802838131
H         4.55936138451024   12.76802592363616   10.74955371002965
H         5.43542729179450   11.29502801777088   11.15026225599605
C        -0.09187496512741    9.08214593051118    6.66855628301153
C        -0.98678665903872   10.15748351571662    6.79069612062549
C        -1.78239493305335   10.53468125241566    5.72022648516730
H        -2.47067910976345   11.36081891902282    5.83872802804250
C        -1.71850327163242    9.87708668491083    4.50072329676999
C        -0.81601033937550    8.83389355038497    4.37009763777504
H        -0.73496180175425    8.31536638561491    3.42417204904898
C        -0.01054282258562    8.43476523020732    5.42624192041622
C        -1.12222610821179   10.89390565260612    8.09140533685455
H        -1.75101324231480   11.77336818142916    7.97191328085639
H        -0.14726117345592   11.20495102389600    8.45920439954733
H        -1.57205308536107   10.25096082755003    8.84667915150447
C         0.95929133499791    7.31346268045632    5.17938772775180
H         1.41024364906134    7.41846514027858    4.19351280472560
H         0.44184779852384    6.35486918511346    5.20821770914850
H         1.74476420958357    7.29614676145585    5.92776457201459
C        -2.57403775214392   10.30440794936556    3.34640421694220
H        -3.50249988515137   10.75143084736987    3.69488839839990
H        -2.80672962580499    9.45811939414932    2.70358071121055
H        -2.04688079593762   11.04742156458164    2.74644533857277
C        -3.97190987921148    4.48500951231527    6.88969954664388
H        -4.29099075472608    4.33653933717198    7.91204150131660
C        -4.80994300789378    5.08581106065483    5.96931652737879
H        -5.79708890632215    5.40203669339252    6.26530666537997
C        -4.35498424146492    5.27708128772514    4.66851444629390
H        -4.98569707313570    5.74991746542027    3.93114071738275
C        -3.08518831887145    4.85355530465838    4.34058526456328
H        -2.68234999802367    4.97859828056895    3.34766341510785
C        -2.29319548538070    4.24687931618696    5.31768510556476
C        -0.96468868188093    3.76263301489296    5.13330721650670
C        -0.31464318650017    3.18970164791454    6.21829716817999
C         0.98849093513460    2.81401374660203    5.87108925880649
H         1.67944028346493    2.34038779374987    6.54829900380802
C         1.35246916274420    3.09393848168365    4.56685412565966
C         3.91256044286517    2.60671933954729    4.94606169600117
C         4.18249829094581    3.49808039185457    5.99581392712650
C         5.14939906134838    3.19763325818384    6.94358742759845
H         5.33525171875493    3.90129412158863    7.74395433466780
C         5.87883688343443    2.02084101180132    6.88748362634109
C         5.63128066438579    1.15040241085285    5.83660449192193
H         6.19933003130862    0.23240687187622    5.76669599780066
C         4.67225329754435    1.42773890893013    4.87497741721679
C         3.46732376543160    4.81393030427852    6.12246100262344
H         4.17178436414701    5.59787545034896    6.39739193409264
H         2.71033870862827    4.75815409253910    6.90439196371999
H         2.97612367498466    5.08948084559329    5.19519706651102
C         6.92864319839087    1.71700323044450    7.91340104323035
H         7.08522963486615    0.64436980578999    8.00418120205134
H         6.64704100593316    2.11804896680092    8.88492764555913
H         7.87636675815745    2.17316273838796    7.62391646102017
C         4.43508389137187    0.43135774591990    3.77800050534714
H         5.19826195173131   -0.34365954621351    3.79062161947778
H         4.44516680688662    0.92039590422040    2.80674816442122
H         3.46255237349267   -0.04360079782062    3.90042160433670
C         2.89026303420067    2.90968340017976    2.37435054753812
C         2.13304479907426    2.06766314502945    1.54885778280048
C         2.24916434397437    2.14324001986529    0.16706001249739
H         1.65795014568286    1.47469979132935   -0.44441208374953
C         3.10267279350675    3.04738260283271   -0.43940283381128
C         3.85838038119951    3.87905360920819    0.37670951008255
H         4.53531027854499    4.58877588463262   -0.07971282156961
C         3.76838675616879    3.81774709903457    1.75628913175603
C         1.20674100616403    1.02342371875469    2.10738184244780
H         1.45486780730594    0.04597019109517    1.69403089730545
H         0.17813843714367    1.25030671530476    1.82786389330838
H         1.26649272811479    0.96874983642322    3.19000267933677
C         4.59353654043031    4.76158130124699    2.58099767058518
H         5.34910616728096    5.24807122650052    1.96817999801817
H         5.08396073644520    4.23479963548103    3.39598178551686
H         3.96026483045816    5.53415935329396    3.01665519559499
C         3.21895816626268    3.13847727509028   -1.93090569751325
H         2.64494618016409    2.35252359394331   -2.41561970121911
H         4.26012029814770    3.05269298910913   -2.23918827316647
H         2.84788075839432    4.10238400353423   -2.27921116030917
C        -4.31070058628461    2.82887989592169   11.31031368589151
H        -3.99558549399378    3.79967979239587   11.68490871290707
H        -4.10399337246284    2.06923507578944   12.06146673780077
H        -5.38295281036630    2.84209653715059   11.12506658839158
C        -3.56076706975648    2.50726312010973   10.02873240472132
C        -3.88496035083634    1.29443139388951    9.41323240373833
H        -4.64671585543170    0.69369428220661    9.88777212048716
C        -3.31629204834570    0.78559794772440    8.24167656000761
C        -3.85428024985243   -0.55211957445254    7.76276395061172
H        -3.32755453145178   -0.85690935863352    6.86180532477202
H        -4.91750215917541   -0.46864159730771    7.54697400822348
H        -3.72138864709887   -1.30830149371022    8.53397268470060
Ir       -1.42829309136350    3.23039224443697    7.88368996903361
N         0.03569582619239    2.50691802346175    9.08961351375080
N        -2.74574385234748    4.07192742833441    6.58886536748659
O        -2.73078714816417    3.36169987305573    9.63482507475699
O        -2.40578276721221    1.30366499311040    7.55122166263727
S         1.60791810719105    6.17987240324507    9.28352999140783
S         0.02039822969892    3.82827242879549    3.71011418080185

