86
CSD_code = REVSES | q = 0 | S = 0 | Stoichiometry = C30H50HfN2P2S | MND = 5
Hf       19.79384363642044    5.77108510557679    5.85410551439700
S        17.66639892244476    4.16407317917506    7.43782803744045
P        19.34869831686404    8.36019341881025    6.99858646911470
P        18.61036539264720    5.48162781571467    3.29607610999801
N        19.29705210289071    6.80106408428193    7.58692010311542
N        17.97110939612816    5.67879100187237    4.81936497671111
C        17.56724915213521    9.06185912613441    6.99217334361010
H        16.98452224097915    8.20854124774648    6.61332995467825
C        20.12102179381918    9.33064594521800    8.43361629501871
H        19.47289852727413    9.25241014174103    9.31433038494709
C        17.59492068456110    6.57198273451565    2.11097547526937
H        18.23230360856968    6.63755340061548    1.22011978845787
C        18.08395919983356    3.75513019919681    2.70717957141052
H        16.99352324355658    3.65302247785619    2.77206341449057
C        18.62895979674416    6.36650636828164    8.79763933549036
H        18.38983939236774    7.20618442136273    9.46093501270784
H        19.29239416157706    5.68914988935456    9.35493916990472
C        17.32745482659770    5.61494377165691    8.49912243153470
H        16.62404773647491    6.25000898034059    7.96423893555298
H        16.86961709718347    5.25111889491142    9.42041190037765
C        16.58720363469047    5.49355385352632    5.20446652751587
H        15.93494694931266    5.32425241313456    4.34078474984094
H        16.22096830933003    6.40451762060184    5.70761374822376
C        16.37811287890526    4.30492513259755    6.15333932403967
H        16.44472770135859    3.36180198481628    5.61181484249278
H        15.40700143857160    4.36004890627773    6.64753086136204
C        17.49010235430853   10.16240506049147    5.93489922750664
H        16.45194294671594   10.41602855702090    5.71954760611735
H        17.96520139985165    9.83427322487759    5.01258984113175
H        17.99347612066296   11.06409132117324    6.27343941646083
C        16.93658762212579    9.52703816641114    8.30056226427037
H        17.45441115121195   10.39418454993786    8.70247749366663
H        16.93925144897779    8.74251469643069    9.05461008048965
H        15.89888050062105    9.81361901324038    8.12193428088372
C        20.33193163037844   10.79823240491595    8.08038367151779
H        20.89848605620340   11.29553987157160    8.86794504529768
H        19.38929825703069   11.32557454853641    7.96167644338123
H        20.89232041696603   10.88780819866188    7.15156439625112
C        21.46059141291896    8.67357164588678    8.75102596187987
H        22.15016966645354    8.80298944913809    7.91781405837632
H        21.33578753150398    7.60612459558272    8.92775562443891
H        21.90922148937602    9.12261913510536    9.63654643871578
C        16.19953068887607    6.13757029645978    1.66740154076633
H        15.49568570233879    6.15563665469062    2.49673514866579
H        16.19260552752842    5.14359877683404    1.22861977604848
H        15.83406538127806    6.83677172685221    0.91432034918786
C        17.53625896140955    7.95290344380025    2.75534421707971
H        17.17234421414733    8.69805181029206    2.04903399730946
H        18.52593848079315    8.25177585646907    3.09718999339367
H        16.86803338221467    7.93712529725232    3.61475839763756
C        18.55493672117172    3.50868198361939    1.27861290220388
H        19.63343738475903    3.64212447767621    1.21789647271291
H        18.09194569217024    4.19551151867705    0.57543354140120
H        18.31833593336983    2.49033874422478    0.96994245425619
C        18.74085616848196    2.75109357974057    3.64975139321342
H        18.40880649369727    1.73582338036796    3.43345567571289
H        18.50309020957051    2.98232401399466    4.68959569423058
H        19.82444023856212    2.78837409584133    3.53356546027129
C        21.57282090972057    6.76840464618816    4.93174231871952
H        22.02216358422601    7.35021402388379    5.74612505190217
H        22.26710452825841    5.97752386978527    4.61839126191259
C        21.26304754758213    7.63531590692858    3.78988611110843
C        21.24530319939802    7.12810171767328    2.48143907337029
H        21.49300478917526    6.08688450053148    2.31738847131400
C        20.96333720380767    7.93826313974909    1.39914978132744
H        20.96650118359464    7.52013013063064    0.40202549670268
C        20.69139076347797    9.28464712538617    1.58140565427757
H        20.47216273807762    9.91829576124074    0.73487833630673
C        20.72553828267275    9.81255918646341    2.86256062712074
H        20.53676895371606   10.86619135569521    3.01542475818402
C        21.01415596772587    9.00569744197825    3.94570089949157
H        21.06578658985759    9.44147955142469    4.93465416592185
C        20.87350553369566    3.86865149016130    6.32001077232039
H        20.25974433161475    2.96279885280197    6.34488626010882
H        21.70444429929187    3.72492510465002    5.61802857443787
C        21.37134779489237    4.18802499909932    7.66836345554947
C        22.48630415636075    5.02131558270505    7.85644965357787
H        23.02241863001298    5.39357334127944    6.99246642263287
C        22.93770183026833    5.34043069410260    9.12180075548560
H        23.79938560766553    5.98278838223175    9.23626743955267
C        22.30011151639838    4.83749204414680   10.24569083463150
H        22.65572670523946    5.08816438666036   11.23376995059330
C        21.21255000816094    3.99507226424739   10.08342034218822
H        20.71914882669157    3.57939832493630   10.95118599635711
C        20.75711653344397    3.67174634320269    8.81873990052659
H        19.91769665805851    2.99709762112394    8.71121249220844

