31
CSD_code = REVVUL | q = -1 | S = 0 | Stoichiometry = C14H6MnN2O8(1-) | MND = 6
Mn        2.80716072229962    4.84686299605068    3.59812919836909
C         2.46012064675747    5.21896504618424    6.28403137884852
C         2.02098404134759    4.91067549824969    7.56066037444364
H         2.21768467471651    5.60036582725531    8.36665390729543
C         1.33617621618023    3.71694823120958    7.76097412236939
H         0.98101728087218    3.45225986718976    8.74609521822792
C         1.10921471769610    2.86764892878142    6.68333291462567
H         0.58129071825441    1.93303663314744    6.79183911744999
C         1.57669936323197    3.23955097891166    5.43412113662317
C         3.21630392955552    6.44706558259390    5.80407792897954
C         1.45564966841449    2.50224761495022    4.11066253723822
C         2.55177075313817    5.99598920200553    1.13188216433988
C         2.93998269139535    6.34839454892127   -0.14973784548394
H         2.25918414456168    6.90889684834966   -0.77128270227312
C         4.20030612913312    5.96417322924581   -0.59469914431459
H         4.52843291699159    6.22492498490146   -1.59020343609772
C         5.03453689898087    5.24035399258002    0.25048984222033
H         6.01902167000722    4.92019540822793   -0.05328990130998
C         4.58112821805232    4.92259055671641    1.51972169639226
C         1.24212764865085    6.28560797778289    1.84659179183967
C         5.28616726386260    4.14671292174938    2.62031503601545
N         2.23469164271966    4.39109965642420    5.25750896280427
N         3.36615795669660    5.30020840475781    1.93360964772002
O         3.44922439234961    6.40251868843688    4.53278785875019
O         2.00205608964899    3.16105281338995    3.14108373894376
O         1.22656191628950    5.79112533083043    3.04148049152583
O         4.54966001022365    4.03427345995061    3.67746573791745
O         3.54472020182321    7.34346252340814    6.55762792124222
O         0.90200004611811    1.42355882475045    4.01571180447246
O         0.33967344277457    6.90981395132866    1.32215397621033
O         6.40889398725630    3.69961947171927    2.48340452461407

