31
CSD_code = REVVIZ | q = -1 | S = 0 | Stoichiometry = C14H6MnN2O8(1-) | MND = 6
Mn        1.72119891498831    1.00692231280942   11.00940507157061
C         1.12536698283517   -0.71524340548807   13.04625078631807
C         1.08247087266795   -1.16529851007521   14.35512263910149
H         0.64212120883483   -2.12728387855926   14.56657783810588
C         1.61280296669197   -0.35875122862497   15.35618628741864
H         1.59365231839846   -0.68572334727180   16.38550321910697
C         2.17022710114313    0.87076826877648   15.02208537606342
H         2.59483158532117    1.52848250671379   15.76447262813066
C         2.17955702823128    1.25724740856789   13.69241710764057
C         0.62639469012659   -1.39979222989307   11.78463290141936
C         2.72864402725556    2.53113881582518   13.07173153298278
C         2.84347534316330    1.19978113932232    8.52518937870458
C         2.92270058647586    1.57502945590778    7.19464749954103
H         3.78866204524344    1.28943103407253    6.61791757767871
C         1.87775266547634    2.30969523371453    6.64485269433335
H         1.91336308165259    2.61506679188909    5.60935832252290
C         0.78604690956007    2.64722495919215    7.43751386078045
H        -0.04726722849041    3.21498848213916    7.05375435927866
C         0.77312769733666    2.23816699972483    8.76041444397073
C         3.83760159000379    0.40222008587840    9.35267203154644
C        -0.28939201175067    2.47009846580767    9.82195492360665
N         1.66432017885021    0.47061757402464   12.74057783585228
N         1.78649527512564    1.53227175775769    9.27519629688143
O         0.84684179312776   -0.68488819877970   10.72963503010826
O         2.57805814060165    2.54441040001208   11.78714179655019
O         3.42724449304279    0.23412834815211   10.56763176987219
O         0.03360080399227    1.93062176410288   10.95230278358997
O         0.08922376372908   -2.49075212290588   11.80589748006136
O         3.24261974207980    3.40964321251771   13.73746045964319
O         4.88406928468515   -0.01138766791072    8.89110946170547
O        -1.30891185039958    3.09356557260002    9.59608660591317

