49
CSD_code = REVXEV | q = 0 | S = 0 | Stoichiometry = C20H22O6Ru | MND = 8
Ru        3.21392872868051    2.13306187651144    5.90832170047804
O        -0.38821580248356    5.63162291994145    6.96143454625446
O         2.35108322476987    3.96929154478966    5.36585418286141
O         2.18667039525042    2.58725397889974    7.70375764719616
O         0.95212442760024    1.77560577128911    1.33070406952278
O         3.51255291550329    1.96920055081265    3.82253346535707
O         1.33633711872785    1.41014384657351    5.34861102474498
C         0.51385643108944    6.14036821925026    4.79259378082538
C         0.54428620422822    5.30940469556957    6.03438498930900
C         1.44855146092469    4.27935966928601    6.23245240065537
C         1.37974868075656    3.52887695217542    7.48454725346135
C         0.38753752198030    3.94068463295148    8.41847135791918
C        -0.44676935175775    4.96558189741740    8.10034958886705
C         3.27000436621855    2.28241920483946    0.95094106114476
C         2.16665928731781    1.94925405931763    1.90147213814081
C         2.35852828596062    1.83152792519755    3.26943255782133
C         1.19994365243396    1.51258818173179    4.09791325376974
C        -0.03737868951651    1.31567089749529    3.42611439978438
C        -0.09353907331422    1.46759336604646    2.07575807629368
C         5.22477066347091    2.89416424608934    5.74249665107378
C         4.85829844748010    2.97306737437355    7.07643584835196
C         5.38511560097288    2.01892361776729    8.13043642147139
C         4.47979784519012    0.78613631076034    8.32352890045720
C         3.71172958536877    0.39159168683596    7.08136460070298
C         4.28325869498209    0.22943818914257    5.82975779092801
C         5.76887195724139    0.39950440606677    5.58065409419454
C         6.14289718659749    1.83737709553813    5.17044323908529
H         1.25251437929679    5.74368722526612    4.10203627868271
H        -0.47335148907618    6.10973516296405    4.33302679967666
H         0.75188200411442    7.18011059766228    5.01615884207800
H         0.29923932439333    3.42573101555157    9.36039852994180
H        -1.23111192518561    5.32308180453860    8.75142748593254
H         3.64399697605927    1.38482914458981    0.45706372335529
H         4.08166665518545    2.73222129816946    1.51570726836195
H         2.91666849340320    2.97131239750733    0.18671808909578
H        -0.91831073967501    1.06563661098052    3.99378625065003
H        -0.99877918960511    1.35318998434803    1.49774999048246
H         5.19162568454707    3.81000604976566    5.15099328467566
H         4.54927927318589    3.94990413234190    7.45550027971141
H         6.39551939156676    1.71349913744575    7.85282811210399
H         5.45705889209316    2.54807184109356    9.08255884348883
H         5.07495468310404   -0.06810310970093    8.66568470208615
H         3.74746366052772    1.01108037129642    9.10000661746474
H         2.79168797403636   -0.15425138034569    7.29578372785382
H         3.77258929932820   -0.42587950062246    5.12141663780873
H         6.31199023279223    0.10251989240268    6.47962463694208
H         6.07259938710130   -0.27738516925607    4.78016235627194
H         6.08211961872256    1.91286080708796    4.08430421022202
H         7.17504764842713    2.05782857023510    5.46529829246334

