68
CSD_code = REVYOH | q = 0 | S = 0 | Stoichiometry = C28H33IO5Zn | MND = 4
I        -0.16625106799346    0.61214453016351    2.43958571599721
Zn        2.35259983284395    4.49006539959312    6.52947981833424
O         2.96419983966690    0.29520388365755    3.47416903002968
O         2.62150991432858    2.36911721811467    5.62277079112660
O         0.19426193710196    3.48613074548411    6.64164883497719
O        -1.73997078408084    4.41172070633991    4.52121695910667
O        -0.63675827907703    3.75952500080102    1.88274687323903
C         1.27715561001865    1.58035360484285    1.24336189927926
C         0.88932318859095    2.67097080947949    0.47345058431071
C         1.82963765603358    3.26808470248500   -0.35556270771710
C         3.12649551976937    2.79245100054280   -0.41384947856700
C         3.49960157004526    1.72360624644638    0.37900011915273
C         2.58146759161689    1.09868289272826    1.21422184649641
C         3.02774176803927   -0.03600397162990    2.10279530882168
C         3.90906352190474    1.27076823492197    3.85767087481650
C         3.76272760357283    1.58826706983304    5.34834229091727
C         1.43234387000064    1.61929235530874    5.81594915336620
C         0.23135625683450    2.52446271815300    5.59851078934273
C        -1.05056243057859    4.12647771170989    6.79875950126984
C        -1.37986843782205    5.12043104199492    5.68486012664736
C        -1.79393874614724    5.21845252555172    3.37090138849194
C        -1.89609227868854    4.33155035493816    2.13574077773626
C        -0.49577259545489    3.24240316758695    0.57932690331303
C         3.09898626889898    4.03005911871918    8.36131097414870
C         2.34356550017792    3.27871075221100    9.26192198297392
C         2.84799415266896    2.86599263700558   10.48470043300470
C         4.14130533309295    3.19506547223840   10.84895475526227
C         4.91696294813919    3.93904968542566    9.97836968164125
C         4.39933943925229    4.34496928887427    8.75836070134047
C         2.07226359890524    5.62726389445501    4.84979796029640
C         1.73196875374234    6.98193580839786    4.90218504536495
C         1.45683153487309    7.72185026333206    3.76254375376025
C         1.52136033111405    7.12557306247948    2.51532869061043
C         1.86477226783711    5.78837008762037    2.42625358852206
C         2.12709278728885    5.06115945746418    3.57567146637982
H         1.53669512843914    4.11456656654323   -0.95908298853684
H         3.84872499250652    3.26397143525596   -1.06225738829144
H         4.51713151962258    1.36116573798959    0.35313699426449
H         4.05143800713006   -0.33529630172935    1.83463817185586
H         2.36536364494921   -0.89882074368269    1.98653260460918
H         4.92697401304182    0.89634028111934    3.66577520989976
H         3.76807111439713    2.19553297530014    3.28025064359689
H         4.62363280163479    2.18331955606497    5.66291509407723
H         3.73774367715681    0.65622650266757    5.92424867699067
H         1.39356359008077    0.78993380502271    5.10533792275876
H         1.41752917280336    1.22585633063437    6.84206503615613
H        -0.68447827406259    1.92138946346893    5.62131175396742
H         0.30440457267602    3.01907756901296    4.62501441364645
H        -1.84941511937452    3.37401278864656    6.85116346352636
H        -0.98597998595085    4.66341702321918    7.74812163667743
H        -0.50004366478482    5.75070141593909    5.49291155715086
H        -2.21123569913836    5.76760066077992    6.00758596254259
H        -2.66798329608963    5.88763182463030    3.41610124855055
H        -0.88391225638185    5.82957837724188    3.29048415768863
H        -2.20725838911183    4.95049632602261    1.28113447982995
H        -2.64709636271610    3.54620299697419    2.30087647613327
H        -1.25163438642829    2.46227442803194    0.38675474798416
H        -0.63714696102983    4.04117380104404   -0.16521539429517
H         1.32733917145511    3.00715730745252    9.00418678636024
H         2.22925959408241    2.28494178261878   11.15663972801170
H         4.54034912966601    2.87577156308079   11.80213036140225
H         5.93009548731042    4.20522272970539   10.25048247976209
H         5.03170587996195    4.92971644755213    8.09964634704942
H         1.67744019813815    7.48052352308692    5.86388400615951
H         1.19156048597885    8.76776121583319    3.84834239089933
H         1.30824357284936    7.69897829949467    1.62281908377800
H         1.92572515391734    5.30609811323467    1.45968541448107
H         2.38137951077295    4.01411872047091    3.46748248751728

