41
CSD_code = REVZIC | q = 0 | S = 0 | Stoichiometry = C16H20Cl2N2Zn | MND = 4
Zn        6.86518515146053    7.59516465235254    5.64290976430009
Cl        8.43565653846806    7.47804792333475    7.17469245783930
Cl        4.71251636513592    7.12414360732388    5.43455901471667
N         6.69436807320201    9.72563508743175    5.01292846226363
H         5.75732217612809    9.75487429572235    4.60874551851875
N         8.02613483905109    7.56916551290174    3.78021290107733
H         8.97659481426406    7.66338538221972    4.13849786069993
C         6.35453788743948   12.10727952430602    5.58218309348789
C         5.02799868292390   12.36067884131308    5.25014990094753
H         4.28650088953559   11.58470646747459    5.38346637673611
C         4.64922116095893   13.59960040649962    4.76622449686876
H         3.61525265787781   13.78690529237102    4.51719987441114
C         5.59386273134165   14.60034819649700    4.60764912044195
H         5.29786726377074   15.56938438143772    4.23463184877818
C         6.91671681438947   14.35614861561047    4.93393945067305
H         7.65599215931789   15.13441044126703    4.81439770185510
C         7.29525912225903   13.11457682327923    5.41590851957251
H         8.32813238373331   12.92845887405175    5.67391398027108
C         6.74659687930088   10.73886322892369    6.07766253507273
H         7.75832628109657   10.74521183580339    6.48932792637507
H         6.05980074885244   10.41795676322067    6.86582386242990
C         7.66062916959361    9.96703992227357    3.94447825060875
H         8.64339386884145   10.09323354845207    4.40875430069084
H         7.42533196072332   10.87544423859751    3.37430455267887
C         7.69720574940656    8.76130875226167    3.00797301735184
H         6.70808049313669    8.61183462976816    2.56513408433746
H         8.41933734172518    8.93912783041352    2.19912201101044
C         7.95859611943898    6.30965653648735    3.02896168281006
H         8.71011901528987    6.28997513837923    2.22667702919785
H         6.96318611148931    6.23413752032958    2.58441875345104
C         8.17819320021342    5.18728250038752    4.00650045922230
C         9.46572357986813    4.83222066681154    4.38988159820852
H        10.31681956118293    5.31779688067455    3.93178356856404
C         9.66561166032444    3.86404297894621    5.35691490758709
H        10.66950685348382    3.59923359136367    5.65284666714733
C         8.57953325874009    3.24523583546752    5.95280271543597
H         8.73700318208577    2.49540733312243    6.71370636503998
C         7.29406480243214    3.58650454698895    5.56995116198528
H         6.44461834080421    3.10115503912947    6.02659493045995
C         7.09119078492475    4.55498215864603    4.60074781229017
H         6.08701132576504    4.80263419816468    4.28782146456441

