46
CSD_code = REWDAB | q = 0 | S = 0 | Stoichiometry = C22H20O2PV | MND = 11
V         5.05674638280765    6.71175551367367    5.37978510122618
P         2.15114680383910    6.28271890017953    6.26912265229241
O         3.56719305246684    6.90439808306356    6.15113881300511
O         1.14858401392954    6.86072857158392    5.35942096869770
C         3.45447571261680    3.85069571601714    6.71536067327443
H         4.08582368843283    4.41899950392761    7.38827956174958
C         2.42481827533952    4.49380835371850    6.04166879943745
C         1.59184190864000    3.78474661266437    5.19175885273804
H         0.79499668374713    4.31114920299076    4.68602821362506
C         2.24060734532232    7.51866515721331    8.76715615782164
H         2.93331565064449    8.19773801556692    8.28716236212944
C         6.01526293583967    6.92733631933543    3.25268466798231
H         6.85425065757120    7.53799426261223    2.94872408266576
C         1.72114939075287    6.46368826419807    8.03451911035191
C         1.86900881109374    7.68963638223284   10.08934207991968
H         2.27358755902904    8.51034039113939   10.66399423623931
C         1.79497083161050    2.42782007312360    5.00191741973758
H         1.15031016897669    1.87171596985306    4.33705907880682
C         2.82885968734359    1.78634809173210    5.66391000766883
H         2.99079344366186    0.72892848305045    5.51275367577777
C         0.44628323937165    5.75970638569985    9.93771046284770
H        -0.25638445619771    5.07835699611545   10.39490721330538
C         0.81931236329921    5.58713201643791    8.61670322941220
H         0.41508113703359    4.77613221497340    8.02621280527435
C         7.28092840436799    6.80337836399375    5.83621916022213
H         8.09472685575905    6.53024599454323    5.18100650099118
C         4.73813086137280    5.13187490396593    3.82598736679699
H         4.44179389035890    4.10236770521464    3.97552038968867
C         6.05996735733477    5.57658899015277    3.58592383419477
H         6.93463467825250    4.94073739946681    3.56984247251424
C         0.97396631540034    6.80860302462147   10.67404701828916
H         0.68309672129325    6.94184757149728   11.70583114780019
C         4.66647116276079    7.35045973506633    3.29452795531635
H         4.29503721569359    8.31880497337792    2.98550035796160
C         5.87984703051600    8.07143592849588    7.10588546420900
H         5.38754087374351    8.93252227484973    7.53676143217606
C         3.65662044175966    2.49595293247765    6.52231868298598
H         4.45664656307803    1.98770563471774    7.04147198896548
C         5.83255317916564    6.76326044993048    7.59172889186859
H         5.28884269677189    6.43549248224662    8.46834613744983
C         6.65992180305289    5.95604816127207    6.77242666776540
H         6.92286002958448    4.92307977405243    6.96304884194598
C         3.87722626830232    6.22043916838032    3.58997330929627
H         2.79752254982402    6.19037802795779    3.57412672412168
C         6.75311651960033    8.09454004761906    5.99345420896673
H         7.07841329600446    8.98459697598018    5.47203122063046

