75
CSD_code = REWGEI | q = 0 | S = 0 | Stoichiometry = C21H35B10CoO6S2 | MND = 9
Co        0.07665949922225   18.53605997779638    8.73854868106445
S        -0.32624064348302   17.11365490896203   11.94288898215497
S        -1.83242610651435   17.27444000588128    8.99850000318661
O         1.65576082917705   19.05424839620640    5.58023735695979
O        -0.18589289814288   18.02935687158506    4.80629439744211
O         4.00977648419967   15.78795468277818    8.56616133490438
O         4.07342737384890   15.34809142955485   10.76718811779800
O        -1.56837671752590   18.44819925344438   14.77968906806216
O        -2.02434966462673   19.73414060953748   13.00125361791199
C        -0.53427824940258   15.59181235149370   10.98024670766040
C        -1.19727554728465   15.67358241738434    9.48645071287497
C         1.35480304621719   16.82798251822802    9.19346960963924
C         1.49822992578612   17.40138155711539    7.91424084605813
H         2.42638140486152   17.90662320022821    7.65553807087681
C         0.43483733510895   17.54919316875271    6.99086974216195
H        -0.32832748090158   16.79502540920846    6.84329533267060
C        -1.99249701239224   17.41848724799108   12.64764918576552
H        -2.67025698950540   17.68050819905655   11.83642363380445
H        -2.30826781525025   16.52435812191959   13.18227039593965
C         0.72408738558971   18.30093497304041    5.75393635856327
C        -0.00938199519091   18.68054745517701    3.55018958128156
H         1.02434702119904   18.53326004704429    3.21716738470557
H        -0.17129900757614   19.75689368641709    3.68411378127096
C        -1.00039092067609   18.09504136993121    2.56221847540225
H        -0.82343395689752   17.02970316218275    2.44290022687359
H        -0.88961217285769   18.58492979254137    1.59921171600943
H        -2.01535427592726   18.23953876423618    2.92212851093125
C         2.58463964676355   17.02690505728193   10.07089433764990
H         3.03705727117044   18.00452457307914    9.89421234538151
H         2.35577340535542   16.92595905464452   11.13008406547147
C         3.63088235077025   15.98604008908622    9.68922352696520
C         5.02396961062915   14.29085048876331   10.59469021822435
H         5.94102922477424   14.60163657995544   11.10456804908503
H         5.22335143921936   14.17362003981664    9.52527632513237
C         4.47525053493032   13.00752496909006   11.19716547889348
H         4.25304152565623   13.15392344915446   12.25035006811942
H         5.21369790294359   12.21766302793353   11.09629132150398
H         3.56161003847532   12.71234136357597   10.68854725626227
C        -1.83955917792481   18.56521478304782   13.61527288595270
C        -1.85905029617049   20.91544136987565   13.79138385404079
H        -2.72870440190669   21.01503721290974   14.45017557874024
H        -0.96812077671351   20.79627674041275   14.41709190610427
C        -1.73436842876776   22.10662711729280   12.86031035023036
H        -0.86542903939961   21.99590228401544   12.21682054558325
H        -1.62902298240177   23.01444088720018   13.44679506934146
H        -2.62016543215565   22.18920777170471   12.23616635910857
C        -0.94434098696922   20.34295182695017    8.58896145927521
H        -1.89410595339488   20.54857562401361    8.12065405659596
C        -0.76182269261435   19.97483292864685    9.96061378093568
H        -1.54950443765434   19.86614482123738   10.68819375768917
C         0.61959538281769   19.95535943801308   10.22447146617430
H         1.07995222924791   19.80041259104863   11.18668885996677
C         1.29088127351290   20.29858685249476    9.02278832849745
H         2.35296232914065   20.44595495511263    8.91212971809743
C         0.32658940917108   20.58364541829051    8.03519236883050
H         0.53795070860938   20.94633032961681    7.04405825080872
B         0.48973984945760   15.52903317723517    9.55683354720595
B         0.76410141354484   14.49838475676434   11.00685923024164
H         1.65224434003039   14.74413508894004   11.72908900350511
B        -0.79748730845644   14.07639971221253   11.72525021278870
H        -0.90713899093008   14.07500744532590   12.89354954471164
B        -2.05144413170136   14.85431190119660   10.75310951581683
H        -3.00527249355075   15.38798471278194   11.16980262830311
B        -1.72332703903934   13.14160158514532   10.53862457149367
H        -2.50888582774532   12.33260303460799   10.86353837181855
B        -1.98947120986913   14.20122363602028    9.12198098113172
H        -2.95746300109083   14.25890189514761    8.46403435144065
B        -0.42815959086251   14.54972557089916    8.40283755539694
H        -0.37715831865849   14.80398842552347    7.26215902071816
B         0.85861936599726   13.80921597976075    9.37464265899134
H         1.87028675846572   13.46359116498425    8.89007392602857
B         0.04976184928262   12.90696887949456   10.69779919271589
H         0.51399684729593   11.92666905666631   11.14818312555804
B        -0.70010438952033   12.95725448399830    9.08923717527419
H        -0.77822665110897   12.01411827176070    8.39494196708678

