76
CSD_code = REWGIM | q = 0 | S = 0 | Stoichiometry = C24H35B10CoO4S2 | MND = 9
Co       11.34092275914766    4.44093047317379    9.56025069562183
S        11.12757238413947    1.59777387771107   11.72664995530706
S        13.19368383381634    3.07578249486872    9.60680686998204
O        11.45466575123162    7.98035037372068    8.91143043429755
O        13.49656888607366    7.39803670838869    8.18038842107435
O        10.93875561483268   -0.07179095936788    8.95061353843544
O        13.04427023381106   -0.52511296655507    9.57849269269911
C        12.68766512784082    2.27314702199722   12.35813664803954
C        13.68093156610664    3.07813126377214   11.32989612718744
C        11.50826737948346    4.83162378080898   11.74830609434085
C        11.60006231919609    5.92711350473035   10.87076053833187
H        10.80406884259588    6.67136921999172   10.86265384768977
C        12.54884343692730    6.05451024738402    9.82290119050696
H        13.57616878686607    5.72250474565249    9.90580098006425
C        10.23432721774215    4.82100546537270   12.57936775613324
H         9.41855511329702    5.29246601073609   12.02228684461515
H         9.93793334084837    3.79201157926116   12.79089882132504
C        11.47445112053513   -0.14778428847923   11.28662620562381
H        12.29099692725003   -0.52578106646189   11.89506266852284
H        10.54438249793547   -0.67165012162219   11.50771129139888
C        12.40591281295455    7.23018249654935    8.94522644626144
C        13.47877213026407    8.50919920236464    7.28810495869039
H        12.60961445049691    8.41942861981143    6.62557919521553
H        13.36263999337030    9.43042521598053    7.87105737307086
C        14.77487985444525    8.51243117724361    6.50014539457476
H        15.62153952415251    8.60186463158612    7.17514680622381
H        14.78030615285733    9.34926884480689    5.80777888754989
H        14.87390418162451    7.58568810256042    5.94159224439563
C        11.76672413501320   -0.24663300788939    9.80843781091392
C        13.48018393022988   -0.53833932593289    8.21632210273449
H        12.99927545057578    0.29139593107882    7.68907776799072
H        14.55671654142420   -0.36708011174608    8.26936606824559
C        13.15962144045600   -1.86113561873394    7.53807284214876
H        13.60025916722603   -2.68604315210890    8.09298551582522
H        13.56185427773195   -1.85693401548776    6.52930740260834
H        12.08284799805179   -2.00324389504059    7.48668339354189
C        10.37460456298855    5.56176353389063   13.89146546196444
C         9.72433833966040    5.08180986897595   15.02109164950255
H         9.15076525891411    4.16795098237035   14.95926412187532
C         9.79896116925948    5.76135747808991   16.22335596087740
H         9.28795670618551    5.37299263200587   17.09196321412487
C        10.52639054267862    6.93523555205927   16.31270152305265
H        10.58768031019694    7.46652814807819   17.25057665302931
C        11.17267182181659    7.42404508269663   15.19116481975529
H        11.74012557718987    8.34084205008809   15.25072087849593
C        11.09687061995188    6.74330341254869   13.98887437578067
H        11.61005822651089    7.13529764931089   13.12439522452606
C        10.25021202272156    2.97890966241445    8.57361376303698
H        10.38026446891914    1.90922141371390    8.56982131143223
B        12.73605721059893    4.02111266029064   12.37934900929003
B        12.64486934196999    3.03594974174631   13.87932480994387
H        11.63627637882862    2.99198597143656   14.47266847622275
B        13.54254851780411    1.53210088907372   13.63602330335010
H        13.10317881620085    0.52572505157220   14.05437062551050
B        14.19050096301732    1.56281263506901   11.98879745330973
H        14.21303874767874    0.65577080681448   11.25444906734042
B        15.24392204129550    1.93377660121496   13.34179789157789
H        16.11330507280560    1.20482418106196   13.64382188381191
B        14.28136624450846    2.86355632385227   14.53804707415883
H        14.47082031745698    2.78169910485304   15.69366919876141
B        13.76902264508758    4.40116068466548   13.77516791947480
H        13.60951350707417    5.38862210130074   14.38810024806886
B        14.44898165207562    4.41022482550801   12.13852905102878
H        14.74315666736161    5.35819314116534   11.51838748533777
B        15.30719633021842    2.90974403838888   11.84338588312873
H        16.13126350170933    2.86210974205847   11.01108668905312
B        15.39361673601210    3.70744221536409   13.44237234620831
H        16.38019771698020    4.22606329391150   13.81126184775182
C         9.35562753733516    3.70081309417994    9.38032166537509
H         8.70315057105569    3.28448996950853   10.13005499647729
C         9.37207222255807    5.05174977833424    8.94298081503745
H         8.73541841248297    5.84211928557779    9.30675366325072
C        10.23700825779882    5.15327392455173    7.83560426885273
H        10.38545045286118    6.03510072246889    7.23605063686988
C        10.82391338250754    3.88943668460394    7.62955296724788
H        11.46648194715133    3.61277260504621    6.80813593492362

