83
CSD_code = REWMAH | q = 0 | S = 0 | Stoichiometry = C34H40N2PtS2Si4 | MND = 6
Pt        4.34378022123893    0.00729980469042    2.18598894779802
Si        4.38354407724022   -0.09736627688994    4.68384663044375
Si        2.61277920448707    1.67994595741143    2.81485635667429
Si        6.17793310338696   -1.67567843525397    1.92835007743816
Si        3.74894417234631    0.43794647271687   -0.19389203137002
S         2.70981514735204    2.32508594126852    5.81599494570245
S         1.21193655425024   -0.07997015147001    4.83673819645127
N         2.19642714086146   -2.22266959313050    2.54335609491288
N         6.53957667200365    2.19062233527809    1.87103853134554
C         3.01272644321772   -1.39729547193582    2.34053970384210
C         5.71153124541277    1.36866908700384    2.04371903258544
C         2.70244106828899    0.94457896770133    4.64457711163840
C         4.27945948311672   -1.78330473506032    5.58063675965022
C         5.74088383520667    0.95233544924210    5.53170317101375
C         0.79740508633495    1.65247896541401    2.21742392620439
C         3.17234271090427    3.50978225520155    2.89438688201352
C         5.45962957032584   -3.35941916797724    1.33191152802355
C         7.57389867988722   -1.23506134259353    0.67179465788812
C         2.19212503190944   -0.55158236699470   -0.73542077473358
C         3.40041451737054    2.26936590228235   -0.66446542376036
C         7.19874805063125   -2.00678133256966    3.51397182079679
C         7.11481145904933   -3.20550690344978    4.21606763371614
C         7.90541080263519   -3.44330800037964    5.32745077576841
C         8.80150091482524   -2.48133281972569    5.76045859922405
C         8.90772697744567   -1.28576201254320    5.06913837413321
C         8.11349806839435   -1.05564809287641    3.96073786933936
C         5.19226330892449   -0.06474390086461   -1.34793406619505
C         5.18664684221587   -1.27782190656575   -2.03091022506228
C         6.18607021349454   -1.59175316577686   -2.93454590034352
C         7.21707322047032   -0.69686206727186   -3.16807228844719
C         7.23961278203150    0.51352210090512   -2.49509181529502
C         6.23775050007199    0.82225984638475   -1.59402573642517
C         1.21139638808732   -0.52082899879581    6.60424197203303
C         1.23671238694297    0.69619107989921    7.51220662124132
C         2.55262230967814    1.45002956465910    7.40679919046606
C         1.43401092823595   -3.20908817492732    2.92708300236886
C        -0.38365664163970   -3.48721127358371    3.05873907440371
C         0.59588240742520   -3.44032307225774    4.07341961568379
C         0.58032767189488   -4.16761411521359    2.28911887950314
C         7.57722696164428    2.96624944888634    1.71213301376513
C         8.35131544512261    3.38861874157091    0.57827647267008
C         7.83734939576974    4.63965806016549    0.97968938864680
C         8.04040875139830    4.19188906640980    2.30059076772653
H         6.43052866113949   -3.97065408468069    3.88016746666157
H         7.82450647891612   -4.38307633265234    5.85474018487414
H         9.42001012885102   -2.66484999079159    6.62654783787647
H         9.61302918075253   -0.53402786322258    5.39349106590488
H         8.21131530224915   -0.12350123746877    3.42153241372946
H         4.38536096880597   -1.98132925258571   -1.86210079280726
H         6.16058246526751   -2.53661453774831   -3.45807338021461
H         7.99918701887454   -0.94197421832838   -3.87123228042801
H         8.03930583649008    1.21779884642743   -2.66945496684504
H         6.26847981853071    1.77052039684609   -1.07896545814519
H         2.61303347880537    2.23981528556034    8.15498206681752
H         3.40449676230602    0.77756995088886    7.52087716973646
H         1.09897318933784    0.36392294158031    8.54500484335480
H         0.41317386095795    1.36663414636356    7.25543050527302
H         2.05247092757753   -1.18055781892405    6.80848348301955
H         0.28333136908273   -1.08043053418977    6.72031637790605
H         5.56332031171568    1.01777209585114    6.60112209934810
H         5.78407277334254    1.96568222627171    5.14403666547496
H         6.71199045297798    0.49007727719043    5.38916606475452
H         4.28061076219101   -1.64652516855305    6.65872204510745
H         5.15384536886287   -2.37715058467792    5.33343683976754
H         3.39862674210995   -2.35497236311980    5.30385013840991
H         0.18019920016865    2.19512450765743    2.92712855681618
H         0.40188478789508    0.64444727484362    2.14689331156611
H         0.69417242635329    2.12957582307996    1.24902787130341
H         2.46666950434100    4.07843324818273    3.49208969040286
H         3.20409561116630    3.94878939539860    1.90369318218830
H         4.15210191386706    3.62928501541988    3.34589670121358
H         6.27140693710961   -4.06679738491982    1.19373180173733
H         4.94848714428319   -3.25389485126684    0.38011718243601
H         4.75561470404290   -3.78849823770904    2.03795997463940
H         8.47615291762991   -1.77110985197124    0.95163380054481
H         7.81428396878412   -0.17764982479618    0.64859473844769
H         7.30962569860347   -1.53142107463792   -0.33632337623016
H         2.03393927976401   -0.42062524055121   -1.80146841547977
H         1.30417667751564   -0.19883184043909   -0.22150021801478
H         2.28087325267061   -1.61564152468274   -0.54028750290707
H         3.38590481578851    2.36656176985220   -1.74587977898993
H         4.16021611851238    2.94552451398648   -0.28624098238749
H         2.44204007248817    2.60800343355060   -0.28677429032005

