55
CSD_code = REWNEM | q = 0 | S = 0 | Stoichiometry = C20H30O4Ru | MND = 8
Ru        3.82157501806627    3.87216988158603   10.49322189645120
O         5.36358629539669    2.48036597669639   10.51997749501348
O         4.14701258257169    4.11495171426327    8.40722333285997
O         4.09012543822590    3.63750510446441   12.58834591420558
O         5.32128234140257    5.30972966225857   10.51375241788364
C         2.06356132469879    5.09769006410918    9.88862819455500
C         1.40825487833381    3.95820757623971    9.12295450880350
C         2.10460289417078    2.72051795942414    9.66636568441409
C         2.08315763068958    2.59432556750588   11.04381577728665
C         1.37102964392690    3.71342239930070   11.78854868698427
C         2.04650747060082    4.97157742943757   11.26616328254922
C         2.30418541360383    6.38370405009687    9.15176651057312
C         2.39068118522704    1.59103515852816    8.71514139776937
C         2.26950028944005    6.10878027963213   12.22503741732641
C         2.33962120344298    1.31579541067240   11.78831811574197
C         7.40944912303673    1.45517810611295    9.94897193645837
C         6.23742673365612    2.36598289106433    9.62511702635780
C         6.23777895442392    2.97006919037418    8.36561990699107
C         5.22677137917842    3.78940201619108    7.85663415526164
C         5.43971019093260    4.31649201780454    6.44570605465903
C         5.32929501428760    3.47017561351616   14.58725203367178
C         5.14293230943965    3.99351691042850   13.17120282741452
C         6.14411601923443    4.84307407501487   12.69333773708244
C         6.16374707876312    5.44886349274291   11.43481372026502
C         7.31718805025529    6.39497241462007   11.14744104357242
H         1.57675450271724    4.06464194360436    8.05160025214793
H         0.32576126361319    3.92157064468360    9.30820617788905
H         1.50975367939006    3.61155002070093   12.86460514960834
H         0.29411292444940    3.71782327596174   11.57018401986947
H         1.35385233280578    6.89391555435185    8.98094349689001
H         2.96216043757405    7.04487190534999    9.70934841116109
H         2.76384868365751    6.17604041806853    8.18802008951132
H         1.49273005627864    0.98421306920009    8.57932963212053
H         2.69062386718027    1.98063846770500    7.74425545147253
H         3.18719607635949    0.95044809225142    9.08879463675823
H         1.35034341172340    6.68895409512387   12.33246109245273
H         2.55047316095980    5.72795809943160   13.20502893536726
H         3.05809245403800    6.77254007156155   11.87581856059805
H         1.40016551544831    0.77752963239127   11.93080183729177
H         3.03341268075703    0.67462790117905   11.25115706868972
H         2.76372506241023    1.53673507778139   12.76532854291563
H         7.27057432283016    1.02325113069798   10.93670926447727
H         7.48464761877460    0.66020385841982    9.21063717687989
H         8.33454282505417    2.02706551468589    9.93361682901115
H         7.08935241440422    2.78209334499156    7.72906273031511
H         4.56034822416179    4.86710289953074    6.12136323597188
H         6.30083006975840    4.98072952531585    6.43152029604879
H         5.62818775163994    3.49445879562718    5.75923613069481
H         4.45819859718427    2.89190870924737   14.88420408516025
H         6.20971808230052    2.83310559804439   14.62686465804259
H         5.47117526479705    4.29603367685441   15.28004401240992
H         6.97032280011875    5.05499980325555   13.35529083500834
H         7.19606267578239    6.82339689158892   10.15585875963123
H         7.34526473585848    7.19120893423167   11.88772390766901
H         8.25827004496787    5.85137808607890   11.19162764978529

