51
CSD_code = REWPIT | q = 0 | S = 0 | Stoichiometry = C20H24Cl2F2N2Pd | MND = 4
Pd        5.00066860415074    1.09018645182451    3.73645010856992
Cl        6.45328625716490    2.59743678047333    4.53218558080272
Cl        4.43263101794088    0.45340348785319    5.80373218698144
F        -1.68250166327992    2.79831729372612    3.39573959537006
F         0.07766056990590    4.43678684647022    1.65363675443918
N         5.74212006675121    1.44145953325269    1.78126510665473
H         6.75098637515541    1.43061664130600    1.94606332912163
N         3.88271090588541   -0.44889375458625    2.78160453075885
H         4.52564294035910   -1.21721964166819    3.00753634189376
C         5.36893188863152    0.26143454097584    0.97826172529407
H         6.05573461982922   -0.54428457992298    1.28623559544488
C         5.53537186793267    0.45387528789504   -0.53311218161469
H         4.84624299614844    1.21944360907260   -0.88714231183573
H         6.55675834025311    0.77692507629620   -0.74763738793551
C         5.22968865876284   -0.84261738638711   -1.27489750031895
H         5.35418461848483   -0.68878846001612   -2.34759392588199
H         5.92732388094101   -1.62432960651694   -0.96669574139126
C         3.80210191397679   -1.27640307613607   -0.96923336775195
H         3.56892646754643   -2.20112325968197   -1.49876149133737
H         3.10587254346724   -0.50828704508349   -1.31256490117369
C         3.62245426911117   -1.49012767710426    0.52996123042220
H         2.59601813244852   -1.80278404910685    0.72248220904393
H         4.28629725659111   -2.29495318954291    0.86037442903210
C         3.94269861596933   -0.21728640980628    1.32930569771490
H         3.21946717105817    0.57064507944976    1.08799585972099
C         5.42117876722867    2.78383172763441    1.27385041345683
H         5.76705059752652    2.91544958688258    0.24168949298327
H         5.97541258765440    3.47856272147946    1.91533949006690
C         3.95851900621978    3.13392064892891    1.37702396559661
C         3.15973736147160    3.22356334706449    0.24338994016545
H         3.57041066029495    2.99914959494281   -0.73075798765311
C         1.84200900153582    3.63499438752928    0.33152536141236
H         1.21716121303231    3.71457644404197   -0.54378110270501
C         1.34138211235874    3.98516609669684    1.57101171763619
C         2.11209418144814    3.90894455037759    2.71809847339609
H         1.69945149754365    4.22336404563174    3.66205182361115
C         3.41825638276365    3.46355303616465    2.62065354455051
H         4.04347959608032    3.44394926611366    3.51665901009372
C         2.57419166625060   -0.83807553879182    3.33049648940386
H         2.20038091495753   -1.74450932022019    2.83629562373873
H         2.74915367234684   -1.06259760962268    4.38768903792222
C         1.52178396921712    0.23717462782986    3.25487046903680
C         0.59598032024847    0.26473285421102    2.21799525024987
H         0.68167806575752   -0.42958773919783    1.39399256117481
C        -0.46992487792328    1.14620723036264    2.24169609438093
H        -1.20279107242181    1.16545164674320    1.45075445227441
C        -0.60879897750268    1.99060137224696    3.32818081697599
C         0.32204928778099    2.01543994424513    4.35141207119986
H         0.18583907193434    2.68928506441521    5.18237790861526
C         1.39524414408986    1.14455788218660    4.30220875189136
H         2.12589253491804    1.13866163906830    5.10058485849754

