59
CSD_code = REWQIT | q = 0 | S = 0 | Stoichiometry = C30H25BrNPPd | MND = 4
Pd        3.72503778518791    1.98464368077267    1.83004549391381
Br        4.49029567650171    1.09440076523787   -0.31559853080125
P         1.90623206533732    2.94598448942050    1.02263840120958
N         5.34989965164636    1.01268145364729    2.80511391319155
C         4.46554531316903   -0.03324543914968    3.21184943910447
C         4.59742235671872   -1.31310312543072    2.68567883949830
C         3.76206729106766   -2.33180588962986    3.11538527313351
C         2.81415924632428   -2.08750472928143    4.09286991694004
C         2.67187667989657   -0.81282908323561    4.61660437685959
C         3.47625101873947    0.23270194835334    4.18258411202625
C         3.26329641713112    1.62153415341552    4.64165569397743
C         2.99851775566786    1.91124585920966    5.97607280769165
C         2.76106788605911    3.21529165203561    6.37021367634716
C         2.78939345544726    4.23470331210680    5.43512296826303
C         3.05347880062206    3.95216518438938    4.10258973884230
C         3.28728209995771    2.65028318071525    3.68720937722547
C         1.02522791782686    2.28190020743423   -0.42502526441877
C         1.61966333285285    2.44327920856946   -1.67521129756463
C         1.01083480889079    1.92702506061350   -2.80242829882259
C        -0.19174160835578    1.24708054475084   -2.69215077326948
C        -0.78405867095285    1.08384765985966   -1.45123592079026
C        -0.17872881335237    1.59504714964732   -0.31660278993781
C         2.33777631818571    4.61672001916304    0.45839255625501
C         3.65759561509815    5.02717478746066    0.62758362728638
C         4.05563141706440    6.27944068272243    0.19592798497697
C         3.13731946977522    7.12326346493134   -0.40806374057855
C         1.82706845563465    6.71069239435244   -0.59602145471263
C         1.42516642711328    5.45730180046180   -0.17187211885794
C         0.60590086607103    3.09627001852031    2.28424388608849
C        -0.04867876865004    4.26856369504659    2.62889247789380
C        -0.95926059619491    4.26359067073946    3.67293818209038
C        -1.21907322340397    3.09646214872739    4.36937925306798
C        -0.56439621216163    1.92207375262056    4.02864260392664
C         0.34999107918585    1.92449472708274    2.99546729964684
H         3.86333697904594   -3.31753998429867    2.68792463661883
H         2.99553368202351    1.11298333139148    6.70573917212734
H        -1.72039981845754    0.55215718081613   -1.36317578564688
H         3.44573225872471    8.10187721524157   -0.74478734717616
H        -1.46235845685957    5.17919307739982    3.94776337697520
H        -0.76045835976443    1.01272861898943    4.57736021963079
H         6.06867000769736    0.67476519943632    2.16194895688082
H         5.75983028570862    1.51393035185925    3.59377946641852
H         5.34473762230995   -1.50553597537140    1.92728720140789
H         2.17193797615287   -2.88430297483976    4.43650200558599
H         1.90735079001762   -0.61074668155030    5.35280597135251
H         2.55359017201021    3.43545363132787    7.40743544596758
H         2.59904274780316    5.25430447909590    5.73943175692208
H         3.05622198076991    4.76504830247894    3.38283854614702
H         2.56503561066042    2.96206368204219   -1.75692241944395
H         1.47967697106833    2.04859156510507   -3.76710671265937
H        -0.66554951965938    0.84041833088793   -3.57331201829028
H        -0.64363386013241    1.46296337844161    0.65060986719802
H         4.37634307324919    4.33882352738620    1.09259968512382
H         5.08001098111089    6.59662082228577    0.32338962521781
H         1.11930715677254    7.36651522283418   -1.08166341758641
H         0.41141793448411    5.11884609182739   -0.33993398871280
H         0.16361166622796    5.18606805905153    2.09924778007156
H        -1.92543463541567    3.10179148478819    5.18621520016390
H         0.89668544035155    1.02030665807201    2.73353106596889

