63
CSD_code = REWQOZ | q = 0 | S = 0 | Stoichiometry = C23H26FeN3O9P | MND = 5
Fe        1.37514838625197    1.33395114312804    3.87306897073935
P         0.31382743398688   -0.16231510830124    2.71697425581533
N         2.74529583954129    1.83652942696095    2.67114103541504
N         3.84611613670209    1.04038594858898    2.63015131343874
N         5.93566766481126    0.48061341710418    1.88448221349208
O         0.34185454671098    1.14576170718531    6.56778975121066
O        -0.45899864314844    3.56985051319401    3.60300161265150
O        -0.86856784958613   -1.11949708341148    3.26493090408267
O        -0.40486244926786    0.65318737135743    1.51652985782955
O         1.05914939822060   -1.24312735494384    1.79071695330501
O         3.53403734627407   -1.61056818710320    5.83084922253377
O         1.35160795887531   -1.67039284342522    5.29429356756937
O         5.88682429777597   -0.61226706847776    4.49465755249245
O         4.92498692182768   -1.98363719915752    2.99634096262858
C         0.71642553337955    1.18902839509123    5.48289809549335
C         0.29791522357971    2.70712688454762    3.63810435089514
C        -1.55221108879941   -0.87337161662557    4.48331474980989
C        -1.17652349815203   -0.01578520539261    0.52199461327878
C         1.63168406889269   -2.45921074316846    2.25845177634456
C         3.34200285943017   -2.74258011315124    6.66410593843072
C         2.45104201341262   -1.15779667838571    5.17934040340542
C         2.68903220253057   -0.00813451108549    4.31720326690312
C         3.83679057469010    0.05682691927536    3.58370340598863
C         4.95124136080445   -0.94692355767532    3.61745027583100
C         6.94878940028160   -1.54027636803494    4.64927028893010
C         2.81988060856513    2.99914554942190    1.89949711658587
C         1.72752991867875    3.39724973090087    1.12554216269519
C         1.78641693678344    4.56363557991766    0.38977232577289
C         2.93082760247539    5.34644498619241    0.40241381946659
C         4.01854801626145    4.95544451847326    1.16536250731541
C         3.97130298280882    3.79141952775139    1.90707680457227
C         4.73707533072646    0.94777588392963    1.55697400900671
C         4.37673775274213    1.25438197843127    0.24582748700839
C         5.32706247376604    1.11108963484398   -0.75354636693068
C         4.98833384830259    1.41411496742479   -2.17715905357428
C         6.59132715427375    0.64568367559646   -0.39494474968354
C         6.83377937592227    0.33016631970907    0.92895710449612
H        -1.80596468808105    0.18304113025486    4.58690899403855
H        -2.46188173121601   -1.47308214325656    4.45211733576708
H        -0.92643677585564   -1.18476769976641    5.31948691023620
H        -1.89167173223278    0.71134038756654    0.13760679641818
H        -0.53060622413717   -0.36331918575471   -0.28497623259804
H        -1.70698678788395   -0.86688645246963    0.95094984795266
H         1.47819732513914   -3.19774396519253    1.47064767521170
H         2.70211897708935   -2.33319421596316    2.43301094082693
H         1.14337640526075   -2.79229260329814    3.17298138552655
H         3.29949685555465   -3.65089197231079    6.05816540377019
H         4.19380249881972   -2.77700622251212    7.33940179971884
H         2.40934638630941   -2.64534126981476    7.22361768477167
H         7.62956070460570   -1.10690321733028    5.37722180441314
H         6.56336411619005   -2.49820072399500    5.00499558591468
H         7.45259750892868   -1.69536864919025    3.69315581255362
H         0.85026926505439    2.76807613746744    1.11187521757210
H         0.93574439502460    4.86115595380945   -0.20544989661261
H         2.97308846043934    6.25678484852487   -0.17611394444190
H         4.91105786931670    5.56340059414971    1.18774667066908
H         4.81424052917244    3.50034919551009    2.51848600623224
H         3.37545040178710    1.57277459235672    0.00593833974314
H         5.85865997974335    1.79197346788844   -2.70842817156206
H         4.65816264091225    0.50329533663484   -2.67724939094628
H         4.18554952934593    2.14486723028195   -2.23608805823193
H         7.36244549114826    0.51969501287485   -1.13850074018061
H         7.79242095927242   -0.05438600716239    1.25005371799063

