75
CSD_code = REWTOC | q = 0 | S = 0 | Stoichiometry = C36H36ClPRu | MND = 8
Ru       13.30885284496797    2.77850880394543    5.96052858126356
Cl       13.00684375799374    1.83195248432843    8.11428759300200
C        13.97177808357442    4.44412006559209    6.42969903014376
C        14.62378224795862    5.54481714403169    6.70012461206410
C        15.39912464545054    5.76094300060112    7.91897568758049
C        16.06801542507254    6.96525671548321    8.12947900202439
C        16.80145470136152    7.16545584703212    9.28399542829042
C        16.87746729415362    6.17104144463299   10.24458264689625
C        16.21428586717864    4.96966679949597   10.04304444083059
C        15.48250042073060    4.76237479662381    8.89212613830570
P        11.16031767679142    3.51030009215363    6.20207084280355
C        10.59899692220564    3.94138874976755    7.88440299529248
C         9.35398824816011    3.58915756988036    8.39261244672472
C         8.99707864742506    3.98100382178406    9.67139090375048
C         9.87305249243582    4.72247283684172   10.44538921666078
C        11.11368568621259    5.07764831407659    9.93972846974206
C        11.47495283051845    4.69179934088700    8.66342810708095
C        10.61559463650806    5.00273971800129    5.30544506371350
C        11.50508675667460    5.63538367796936    4.44742171891789
C        11.11858778300956    6.76907368926611    3.75446684935826
C         9.84110537518534    7.27757156054904    3.92037265874643
C         8.95288167401636    6.65528894237464    4.78435997930223
C         9.33588461382690    5.52243581717083    5.47774686959339
C         9.95134705247622    2.24623326834015    5.70572125105140
C         9.96391977609212    1.05879880337225    6.43770803283129
C         9.12123439990124    0.02087389575635    6.08932968593359
C         8.26790448111837    0.15481064838156    5.00365203918031
C         8.26305129768115    1.32723737905488    4.26677463286477
C         9.10491056522249    2.37188694759585    4.61035934446843
C        15.04483189008597    2.36521027071208    4.64003296319775
C        16.30077756607952    3.16078398728253    4.44232241352192
C        14.86670638628448    1.27909950980164    5.53808903063613
C        15.88917775150196    0.70036913854725    6.46664815661346
C        13.61331352066456    0.62782677546110    5.21259620201054
C        13.18277215054016   -0.68055397249418    5.79838251253853
C        13.01100735053685    1.33240174825732    4.16185160956869
C        11.84604570760586    0.89538727635153    3.32858405457533
C        13.85210878524771    2.46590573294452    3.84104160103200
C        13.71392318131657    3.28320286861681    2.58987855957452
H        14.59133423901206    6.38060615663499    6.00605329866336
H        16.01181442183428    7.74740103500161    7.38438254373782
H        17.31640059520686    8.10392167058538    9.43531219760006
H        17.45072230001411    6.33109715725642   11.14620633938716
H        16.26891078895208    4.19059660305319   10.78960913047036
H        14.96347984151250    3.82707465246663    8.72888314608617
H         8.66816716546209    2.99778545301445    7.80124211798728
H         8.03127505006501    3.69932390282033   10.06605571423640
H         9.59138689429374    5.01733483112022   11.44566736656059
H        11.80389403793344    5.64823808904851   10.54335175396342
H        12.44851139127053    4.94428549463860    8.26168524087220
H        12.50399780747650    5.22598328419212    4.34762485390537
H        11.81247091443814    7.25847722611328    3.08639084946297
H         9.53708601982100    8.16268527862350    3.38115082790106
H         7.95924590172546    7.05760316459882    4.91821195806516
H         8.64744531006782    5.03855842788209    6.15658581905132
H        10.64076320875091    0.96658576953441    7.27857695667010
H         9.12935101992996   -0.89580943529630    6.66135291234673
H         7.60977491271223   -0.65697635262901    4.72993961058938
H         7.60289248591983    1.42858016489084    3.41731857440333
H         9.10169095644781    3.28491509971772    4.03068605440215
H        16.94097476430747    2.65505620145632    3.71584710734790
H        16.85195469624023    3.26412446647740    5.37484168288532
H        16.07989767395689    4.15870035049408    4.06893132872930
H        16.34389038034878   -0.18392335689483    6.01375512847998
H        15.42564149990181    0.40171137596877    7.40683036072230
H        16.67383684622104    1.42234515618518    6.68470193658301
H        12.17846087550035   -0.94661063344475    5.47411016401270
H        13.19266429539420   -0.63544081206901    6.88799630444224
H        13.87146827393290   -1.46833241857224    5.48524361346863
H        11.24870120920970    1.74415653512691    2.99858977304025
H        11.19519935320571    0.21349942715368    3.87162523081632
H        12.21854274852418    0.37920991520729    2.44011617762008
H        12.67073636290431    3.51881562714556    2.38436141895311
H        14.10785510409573    2.71924138657304    1.74068322667821
H        14.27081015955812    4.21540359550991    2.66402790816771

