54
CSD_code = REWVOF | q = 1 | S = 0 | Stoichiometry = C19H30CuN4(1+) | MND = 4
C         4.97521949217546   15.57893148824935   11.81057746803167
H         5.48186232499025   16.54557288344053   11.67344619768453
H         3.93047232660089   15.74135039122120   12.07979288709308
C         3.67820993969998   14.32143233506437   14.32569129792239
H         3.52679470057131   13.82941446670475   15.28166027009424
H         3.08542350344095   13.79842540385982   13.57594950956781
H         3.31368150141106   15.34501089387371   14.40555748910566
C         5.11959906293223   14.29192644970925   13.98367642182876
C         6.18070054372181   13.73464700048218   14.66276616548857
H         6.14309650010572   13.20305238830682   15.59027505944242
C         7.32414445748290   14.00352743395719   13.89622656367927
C         8.72645311376282   13.62187517854366   14.17923525665168
H         9.35503784422284   13.84342837809545   13.32120217427572
H         8.78740897412151   12.55988607283286   14.40690497927996
H         9.09651830123016   14.16921289272007   15.04497015264716
C         2.61926614672687   14.32446379761397   10.24190223451383
H         2.45529698850657   13.80772595302200   11.18697578000453
H         2.02234488788426   13.83385044983222    9.47907098469303
H         2.27029931260936   15.35171408726743   10.34191747338786
C         4.04716370140303   14.28012721725460    9.84848589171053
C         4.64552597109848   13.71017011590086    8.74634537240583
H         4.16158365283669   13.17699882461807    7.95527349260317
C         6.01893538448115   13.96910375571295    8.86543418653491
C         7.10709093493172   13.57502887686416    7.94181617694026
H         8.07407783366883   13.75335029173916    8.40348968571822
H         7.04119267794908   14.14992163705296    7.01907637102951
H         7.01713054956593   12.52233514025778    7.68400296691235
C         9.59492282493209   16.10424611591190   11.31080584510050
H        10.29131509714247   15.38206479863785   11.72709570828318
C         9.27860004932066   16.00135075479796    9.97633197934771
H         9.74130641552030   15.20068733769721    9.40566013542262
C         8.80969914383775   17.15851832072814    9.14401003672888
H         8.26277507648951   17.87578974538918    9.75444577548670
H         8.14481182928306   16.81534439051105    8.34935784928777
C        10.02073866030333   17.85392818046656    8.49944100394424
H        10.42062831201299   17.21247833123752    7.71129585305730
H         9.67160492785436   18.77486914896464    8.02942858652011
C        11.15711403037997   18.17928374880568    9.47012342279425
H        11.91988175136549   18.70723994787501    8.89536350351219
H        11.61345500581051   17.25411787802177    9.82430705994844
C        10.75294912633863   19.04086785856417   10.67529360111827
H        11.50422298926267   19.82055484364438   10.81207712500266
H         9.80805809985998   19.54762936140639   10.47211437639049
C        10.65655746387806   18.28504707008161   12.00241475110125
H        10.59400733935116   19.02102457532040   12.80673326121775
H        11.57049060962291   17.70843353677760   12.15692566683217
C         9.44031236085936   17.35353010777678   12.13535903267768
H         9.34066695150910   17.07197449548863   13.18573273223309
H         8.54341897097862   17.90658108185241   11.85284024630223
Cu        7.82874958843820   15.14502370935416   11.07715190222759
N         5.63679137588450   14.86635049789385   12.86986291873552
N         6.97495898884546   14.69506111444555   12.81944928078046
N         5.04157065553768   14.85108245864046   10.57182499148661
N         6.23716172725009   14.66593678551269    9.97273084521491

