124
CSD_code = REWWEX | q = 0 | S = 0 | Stoichiometry = C51H67Cl2N2PPd | MND = 4
Pd        8.77466425703805    2.54520739135661    3.85345960810065
Cl        9.03115602390361    4.18507712677162    5.43635546394526
Cl        8.49655162148480    0.95909069630473    2.24199651872023
P         8.31375813844654    4.31745504165025    2.47030677871299
N        10.46768358416001    0.99535033577716    5.75559920611005
N         8.45780774568971    0.24277658178763    5.82340840326282
C         9.24514768556640    1.14771387359279    5.21194939040497
C        10.45060525706241   -0.00277875775984    6.69559043675351
C         9.18707254163593   -0.47722741222989    6.73824064767010
C        11.63992564369489    1.72139868969087    5.39315409191676
C        12.16972884246822    2.65596806440098    6.28851885733253
C        13.35029721506230    3.29699021034606    5.93371714794639
C        13.98712422359746    3.00942638077848    4.74357439713981
C        13.45947952297549    2.06697083010900    3.88144495033019
C        12.27641954955100    1.40593630453277    4.18394044886483
C        11.54282817789803    2.92629632058854    7.63667709559532
C        12.39700978830593    2.28107188292808    8.73363424115314
C        11.38071927253767    4.42147535548601    7.91019723780146
C        11.75844805335711    0.29887688344563    3.29277341131201
C        12.38101207370589   -1.02875607680516    3.73846949201514
C        12.02683183889520    0.54013855543344    1.80855192007730
C         7.08105818369455   -0.02994229697993    5.57218086361523
C         6.74990572041211   -1.21618759920843    4.91095125855472
C         5.40264943938619   -1.52810255826313    4.76860931107206
C         4.42319818375998   -0.68974919397096    5.26199531492168
C         4.77036628637427    0.48382485963739    5.90459535967803
C         6.10189796761770    0.83720134938679    6.07543504872521
C         7.79707788771826   -2.16287294198438    4.37161661929431
C         7.74352382736335   -3.49619074655601    5.12354409759736
C         7.61789636329350   -2.37925188072823    2.86795688132236
C         6.49161234434854    2.08083180883188    6.84293743525180
C         6.79707616119707    1.70619320138368    8.29777018861541
C         5.43394421964650    3.18430296340297    6.80757747231596
C         7.71269566283280    4.06988409817250    0.71868079204933
C         7.08932857513478    5.28714525720980    0.03938763311359
C         6.43346364990496    4.84421397933378   -1.26732242045446
C         7.46058530443341    4.18973728229212   -2.18708335118378
C         8.12541768925012    3.00406858988448   -1.49346291486140
C         8.77474602571971    3.44416299395045   -0.18386681600046
C         9.88261405428812    5.31859265326746    2.44403755499592
C         9.98364452730414    6.48469264275062    1.46493917346013
C        11.27469412958965    7.25668769355122    1.73489644389773
C        12.48295811737563    6.33686284601790    1.58202462805375
C        12.37521699575712    5.14023219844100    2.52431241390751
C        11.07883310286654    4.37511647599423    2.27527199645960
C         7.04466663372315    5.44088180105356    3.17441615348097
C         5.69366444663670    5.05806708004154    3.19416290843617
C         4.74280201893059    5.90666179063652    3.75042511711128
C         5.10577972549486    7.11481038689398    4.31420348878865
C         6.43818319162130    7.48490355199984    4.31971440439642
C         7.39180496999485    6.65731015302453    3.75514302517032
C         5.22402231398558    3.77855977451730    2.62827116180063
C         5.68085932882552    2.56078056120753    3.12387901578227
C         5.23527364144190    1.37244797463970    2.56931428929845
C         4.32421599695040    1.38921939938798    1.52751639799681
C         3.83718048455635    2.59644166364605    1.05350165372796
C         4.27773250252370    3.78455875311694    1.60569226174430
H        11.32610349177273   -0.28898278831781    7.24028655525963
H         8.74583312198568   -1.25198284088776    7.33067106466421
H        13.78474319584305    4.02090989644272    6.60469702878331
H        14.90971291087487    3.51213032039862    4.49208151418917
H        13.98096788955934    1.83358065100916    2.96728241200976
H        10.54229556551770    2.48494633672377    7.66200098955288
H        13.38490817295099    2.73543262797240    8.76059229273696
H        12.52192229424815    1.21355428945638    8.56446626971023
H        11.92645459448537    2.42206277859311    9.70404344849951
H        10.78267618759150    4.87436317758430    7.12505730629569
H        12.34111712337132    4.92686392841194    7.96647347987454
H        10.86601388307947    4.56353608658493    8.85787659972952
H        10.67177434010958    0.22448577508447    3.40169789823787
H        12.13066116952034   -1.25238192611370    4.77407127856659
H        13.46531168081430   -0.98737927873564    3.64979631834091
H        12.01179290819735   -1.83846820457501    3.11353347782054
H        13.08027093525664    0.42836042270577    1.56179355565718
H        11.69412629249178    1.53522047305340    1.52500940072194
H        11.46005692827827   -0.18026157143199    1.22413816209254
H         5.11831490032038   -2.44060685113919    4.26808764951821
H         3.38172995544004   -0.95101979283990    5.14648456604819
H         3.99391199635200    1.12611132908232    6.28594889680326
H         8.79033464367434   -1.72836219746211    4.51590435232690
H         6.79257065016355   -3.99572064826601    4.95608281738706
H         7.86440037583009   -3.34647772070525    6.19494196629542
H         8.53978824685373   -4.15085837637270    4.77652795528912
H         7.71535652224698   -1.43053778759661    2.34553110536517
H         6.64714752654378   -2.81168600480809    2.64052779781989
H         8.38793577157953   -3.05397470606498    2.50051605890927
H         7.40463586048862    2.49709741069770    6.39965532491360
H         7.60442963028990    0.97964887532149    8.36015983855124
H         5.91395214306787    1.27916453419477    8.77017085101508
H         7.09341854793755    2.59365448117288    8.85166130208632
H         4.58466475864566    2.94276433982415    7.44376778577682
H         5.07974231293550    3.35762725408073    5.79412861518303
H         5.87616363989802    4.10957239568552    7.17001197159220
H         6.92645215961945    3.31125912375422    0.83556579362292
H         6.34365189964047    5.75122730070704    0.68823396991170
H         7.85081913378401    6.03561363251926   -0.18156645773623
H         5.63840275894625    4.12848348207719   -1.04511198269053
H         5.98247146316388    5.70601219000563   -1.76534069830997
H         8.22260879948267    4.92524151688749   -2.45866133926768
H         6.97599715314542    3.85836144825423   -3.10793710726825
H         8.87925175761050    2.56311242719202   -2.14934850191505
H         7.37783756341010    2.23716914590135   -1.28022169409268
H         9.56498603080446    4.16408010245615   -0.40647113379180
H         9.21583849482756    2.57738486658382    0.31392294391875
H         9.95242600199477    5.71060495125386    3.46834259646295
H        10.01131460958718    6.11297628025076    0.43929632591569
H         9.12223761280065    7.14931982714973    1.56356807701100
H        11.35525164866976    8.09730420194492    1.04158323194503
H        11.25309332361332    7.66115123714231    2.74970380207477
H        13.40031538666356    6.89135419698490    1.79049052001709
H        12.53633796558985    5.98084929842485    0.54997226741121
H        12.39371936773222    5.48579165674617    3.56047656224203
H        13.22973954145938    4.47696487461556    2.38006004519504
H        11.09432310864837    3.95680363304911    1.26640579051094
H        10.99440669989994    3.54078668405725    2.99916560697370
H         3.70745530698792    5.59499910842355    3.75266645272124
H         4.35615921942586    7.75738618775029    4.75180609309494
H         6.74152928954122    8.42053645750071    4.76605855657261
H         8.42155046180331    6.97192516485939    3.78878508786622
H         6.37470201464009    2.54096497922895    3.97276347883116
H         5.61134916437199    0.43475451172959    2.94490339843585
H         3.98978290532028    0.46092407442899    1.08878502742503
H         3.11543986991984    2.61292081213416    0.24914239505562
H         3.90764838784885    4.72889509255479    1.23119837625056

