66
CSD_code = REWYAU | q = 0 | S = 0 | Stoichiometry = C21H40N4Ti | MND = 6
Ti        1.25264491165912    6.59394421302486    3.79854857958396
N         0.39526036809369    6.13948341135640    5.23611275594144
C         0.33755464586780    5.36657027491537    6.32145123863235
C         1.54900580314932    5.05825492822895    7.00178058889498
C         1.59770377337251    4.29653903991484    8.14321322802190
C         0.42816622873995    3.79397866969807    8.68719121908944
C        -0.77386361929146    4.07516088585376    8.05659460481775
C        -0.86387312657837    4.83744226234019    6.90686352994438
C        -2.22182626153134    5.13164293003231    6.27981876870068
C        -3.39970774658292    4.44142973791130    6.97738704478000
C        -2.45488437484043    6.64638411518978    6.35938663500240
C        -2.20732313793136    4.66361796391593    4.81994684790334
C         0.41128940747758    5.27412437716519    2.36936369948189
C         2.98743121865718    5.40689940981594    3.93187847969650
N         2.43767813582574    8.11863288304487    1.96130225426344
C         3.20174136689563    9.22859327931718    2.53700713672378
C         3.44320409108105    9.01614586158249    4.03632169825947
N         2.22152222521169    8.68635637358437    4.76553562719773
C         1.26387786134513    9.79534462091065    4.77590681503201
C        -0.13999282840883    9.32392017277602    4.38582147656931
N        -0.16689483188909    8.54254134553299    3.15067896940050
C         0.24339478987099    9.31890367250994    1.97853658022257
C         1.30029545562262    8.56782031798543    1.16136155916084
C         3.31183226329747    7.29805503484983    1.13274562832954
C         2.55280407496583    8.30786304644535    6.13675822747749
C        -1.51409403423062    8.01235951234558    2.95506896753490
H        -0.63353523478128    5.45133073612532    2.08173229711540
H         0.46015064765778    4.23740863967103    2.73040164300244
H         0.99796814060133    5.29671790945380    1.43630248321161
H         3.84829166771761    5.88473310280640    4.42796556026929
H         3.32627233571085    5.11250222788250    2.92822661257391
H         2.79634305044309    4.46852462268128    4.46775787958711
H         2.46556716629547    5.44452451979210    6.57509016874320
H         2.55065457582797    4.09227444455773    8.61561792850376
H         0.44475650665051    3.19332827884908    9.58519429312132
H        -1.67040647407399    3.67142255838953    8.50132918374812
H        -4.31907412595426    4.68818352390232    6.44739282305272
H        -3.50715867059575    4.77564948797348    8.00694255259289
H        -3.28409895732274    3.36044284523788    6.96490934190273
H        -3.34695855733573    6.93857119974501    5.80613836556967
H        -2.57446752070600    6.95085333932240    7.39772948829192
H        -1.58551932580278    7.15550979173896    5.94954897135186
H        -3.11400480559193    4.97792548767983    4.30257637114314
H        -1.32878055208424    5.06931244715755    4.31639634936385
H        -2.14968926244028    3.57767882363001    4.78572405811269
H         2.68408622809591   10.17656049502304    2.36797661236179
H         4.18080157871233    9.32732735941426    2.04796172246373
H         3.93057926086531    9.91911551998991    4.45061762305980
H         4.13219204952574    8.17515347763330    4.15616202343202
H         1.19893795009040   10.24389684032380    5.77744044424194
H         1.59884834709738   10.59320791336851    4.10610040360871
H        -0.80729858566209   10.20465496563344    4.31807948210348
H        -0.50368427814129    8.66657376399689    5.18166462676543
H         0.62325270141256   10.29880540542278    2.28069040711055
H        -0.61269363204729    9.51609203689146    1.31827092309445
H         1.62698859932831    9.21387476135082    0.32386913465131
H         0.83251109853694    7.67417695985133    0.73760742306707
H         2.77626272417712    6.41832437317193    0.77981885158830
H         3.68035723565397    7.85624184221241    0.25602824731878
H         4.16675987836748    6.96676242579286    1.71886230920649
H         1.65074249338869    7.96668113761786    6.64537840755507
H         2.99600929224201    9.15263071459066    6.68984222811493
H         3.26433041673277    7.48368139093010    6.13081437078012
H        -1.57150871073044    7.50075850107562    1.99536199950134
H        -2.26503547760126    8.81970397632235    2.96755308617070
H        -1.73759643411201    7.29377381252868    3.74224114192044

