92
CSD_code = REWZUO | q = 0 | S = 0 | Stoichiometry = C35H53ClFeN2 | MND = 3
Fe        3.38894427153768   17.15733579087211   16.31437101361456
Cl        3.38903476484714   19.17832807665156   16.31454411655907
N         2.93969515070253   15.72038817422521   15.08060980797545
C         2.55451829862250   13.44712577189778   14.00597442877707
C         2.98277259628409   14.40809619741992   15.13288989348583
C         3.38913945138752   13.78243576079354   16.31436797029514
H         3.38913060790213   12.71044606400195   16.31442003878406
C         3.69508519976039   12.46171318683602   13.70281319276469
H         3.40281499430130   11.80722695383317   12.88386531789080
H         3.94114523828706   11.83657401953829   14.55525726537158
H         4.59188908995896   12.99997917671201   13.40459969247886
C         1.31903734138704   12.67973670945353   14.50574546791858
H         0.97187804732574   11.99173965906190   13.73714827007939
H         0.51407478023672   13.37410801426737   14.73617067484928
H         1.53469297451686   12.10616561837404   15.40206213314187
C         2.17654166521865   14.09798306509268   12.67325070777671
H         1.83395691093745   13.31987054165939   11.99160487121733
H         3.02586868946541   14.59285983450625   12.21356354535231
H         1.37526231551552   14.81993310251239   12.78358004547031
C         2.73939092681722   16.54247686917216   13.96537648770227
C         3.81070626484125   16.78593084939341   13.07576846447489
C         3.61896868681896   17.64076390161725   12.00464700017097
H         4.43415087878660   17.84240760703864   11.32739561181938
C         2.39368491050127   18.24422136088521   11.78529887845123
H         2.25788737468746   18.89956743848516   10.93800376826122
C         1.35096177543079   18.01996995050761   12.66218964062449
H         0.40330084717584   18.50705646652515   12.49005023233124
C         1.50170070054572   17.18710728379024   13.76115644450596
C         5.16500363199900   16.17444419257789   13.34992838382623
H         5.02418659418833   15.29540852818337   13.98668379061102
C         5.91005565218295   15.73637124248008   12.08895098606152
H         5.28095211092996   15.10775757003470   11.46185212684488
H         6.79567937994237   15.16750960574022   12.36531904784805
H         6.23435906799985   16.59221471543531   11.50265740137737
C         5.99016255996552   17.19259394966532   14.14003513251536
H         5.44139322890326   17.48469458864425   15.04053226391205
H         6.16748965631807   18.08503756983232   13.54436584517595
H         6.94785813306218   16.76731863916765   14.43088646167848
C         0.34750249130392   16.99119065498919   14.71826313442602
H         0.69959400513012   16.36677348669452   15.54950601780861
C        -0.83439336767488   16.28566807633544   14.04742015908660
H        -0.55638997515631   15.29351268862636   13.69946591464051
H        -1.19131979988448   16.85735984496994   13.19391094060765
H        -1.65376491177890   16.18065709830887   14.75570826135866
C        -0.10563101663499   18.34133744901509   15.28076560288339
H         0.74284884341023   18.88730938711391   15.68601716293894
H        -0.83769120940108   18.19527801776570   16.07150371487488
H        -0.56219334345652   18.95007180991014   14.50458367436938
C         3.79542052817252   14.40818782525054   17.49582684488957
N         3.83846299579058   15.72047942370601   17.54802690783054
C         4.03856256961865   16.54268325544089   18.66321411637080
C         2.96698750290102   16.78642498221881   19.55241460134695
C         3.15842045855599   17.64155854787663   20.62336275839478
H         2.34299022648804   17.84344834630184   21.30025035680728
C         4.38365674624063   18.24499487554895   20.84296656443167
H         4.51920282124838   18.90060223095859   21.69009901140933
C         5.42669903031905   18.02033076331524   19.96655258631038
H         6.37435501580186   18.50734975197608   20.13891515678949
C         5.27629357406856   17.18715365238123   18.86778511371191
C         6.43088716524166   16.99078359462150   17.91124469317095
H         6.07917496107111   16.36588428450040   17.08022340206197
C         7.61261250855527   16.28571272804193   18.58287705751712
H         7.33466467582410   15.29360197388538   18.93100548452474
H         7.96904963718432   16.85773249735984   19.43636987190241
H         8.43232498682100   16.18064055618600   17.87499169995457
C         6.88413150317528   18.34067496534714   17.34820790427186
H         6.03576321021145   18.88642413432581   16.94242676007091
H         7.61644071504831   18.19426493454909   16.55776408829853
H         7.34042769569068   18.94979689935337   18.12424403870212
C         1.61269397405427   16.17493012096801   19.27825851884530
H         1.75331658581936   15.29697641539711   18.63996583936327
C         0.86893890060056   15.73453886133983   20.53921356528152
H         1.49876177657501   15.10495316435312   21.16461391123588
H        -0.01685968975322   15.16599846468404   20.26275142763640
H         0.54510664748878   16.58929631918530   21.12734322757508
C         0.78650625345061   17.19405024116142   18.49049203019786
H         1.33453057751075   17.48800520341717   17.59018448995602
H         0.60908909848384   18.08534452494752   19.08785917803740
H        -0.17118114364710   16.76879269413228   18.19956781475110
C         4.22346507690224   13.44733384565503   18.62290297503941
C         3.08263780964542   12.46224259420289   18.92610876600497
H         3.37461764531224   11.80788898712626   19.74526566199980
H         2.83659737370814   11.83695983798793   18.07376268745899
H         2.18590523363334   13.00079328422550   19.22401685010950
C         5.45884863010295   12.67963398050231   18.12338028956458
H         5.80580119535620   11.99168861703484   18.89211754544246
H         6.26395884610619   13.37383097718536   17.89293955191766
H         5.24318533181265   12.10596817289858   17.22712735374990
C         4.60146525671296   14.09835445397499   19.95553602361175
H         4.94380588037610   13.32029746438342   20.63736762564872
H         3.75222769089385   14.59353843212568   20.41504474660710
H         5.40291603610256   14.82009655957244   19.84512989562319

