61
CSD_code = REWZOL | q = 0 | S = 0 | Stoichiometry = C24H27N5NiO4 | MND = 6
O        -0.94365492184290    6.28638641784815    2.50613629614011
C        -1.67527321546887    5.60285262854858    3.23949476764792
C        -2.95144033691123    6.23940045987714    3.78947929400287
H        -3.39537513920452    6.88265605409731    3.03490537971942
H        -3.64884526898823    5.46632481635089    4.09771551220046
H        -2.68554937200917    6.84785268226951    4.65206382423387
Ni       -0.07062569023026    3.16900331799538    3.47025984209565
N         1.19573251031956    1.91885211909671    3.44840069926575
N        -1.05532335907261    2.20939449423855    1.62553862480527
O        -1.47709165855844    4.41332486843280    3.59307187443800
N         0.77810178754564    4.24300521669132    5.31110054638308
O        -0.97142419074058    1.67253702285533    4.78814628074992
N         1.01709710662923    0.79759295660010    4.11995726110115
O         1.25886279832262    5.33569737387425    1.56844510775184
H         0.39184702845950    5.77658773029326    1.90812037234747
N         1.29767765117561    4.13176976251821    2.20385603314563
C        -0.13663609426977    0.74821339138169    4.78074446447552
C         2.26431112198121    2.11458734843716    2.72997047970872
C        -1.41970551549240    0.93109768799583    1.60960882809081
H        -0.88146172738837    0.25896972489667    2.26433854531721
C         2.32138419084274    3.36685934033144    2.01502550853017
C        -1.20204232043603   -1.40250698805851    4.50640373287646
C        -1.68244450780838    3.04695427940837    0.80264973169027
H        -1.35382878693242    4.07739330852431    0.81687486295542
C        -0.11114117661980    4.28224714946185    6.30202444886173
H        -0.78688687951271    3.43947405438476    6.36421382892453
C        -0.42576743384267   -0.56485063655332    5.48502116332199
H         0.51246232732184   -1.04673556427827    5.75434150212416
H        -1.02284510898171   -0.36371409333419    6.37422371404331
C        -2.63375291477079   -2.86340985480010    2.61851734846670
H        -3.19003206220183   -3.43573020055619    1.88990210866622
C         3.36132968016780    1.10180193423031    2.63305853990094
H         4.29577993824037    1.51221292106387    3.01329643632199
H         3.08776794416875    0.23041282411606    3.22080361111388
H         3.51690655373377    0.80629627725802    1.59671015543968
C         0.68467478614535    6.39677836919634    7.06822051693845
H         0.64156908507586    7.23921341883042    7.74342364935456
C        -3.09431758996234    1.31948535095839   -0.04100841463711
H        -3.89319460365783    0.97578621261103   -0.68214639430094
C         1.63080756376463    5.25832858413345    5.20021490029456
H         2.35497343841837    5.19504201472546    4.39886905203879
C        -2.70337820192087    2.64860687416365   -0.04465879655674
H        -3.18165745143946    3.36862117225955   -0.69025767122390
C        -2.43093579797471    0.44118554808299    0.79935590981571
H        -2.68811770739463   -0.60570139314302    0.83737018069449
C        -1.26808898600212   -3.04948748750325    2.75207274208042
H        -0.75601392219904   -3.76477752565506    2.12461810265290
C        -3.28276102954252   -1.94049420587370    3.42233725875512
H        -4.34715547380805   -1.78653584377747    3.31837720393989
C        -2.57081983434407   -1.21245995033197    4.35822074498581
H        -3.07382453588367   -0.48187079873301    4.97374613214841
C        -0.55588616617751   -2.32048608149763    3.68828633991943
H         0.51071980716993   -2.46177855639869    3.78658231827431
C         1.62189477859802    6.35255128206624    6.04903658987189
H         2.32999330300084    7.15412629569952    5.90780373038123
C        -0.19353342557056    5.33393987646736    7.20025584205345
H        -0.93700934758682    5.32078300668705    7.98216711313248
C         3.47881050237453    3.71897829617295    1.13602706734938
H         3.53628968586009    3.02937245571751    0.29553442398954
H         3.34828872085960    4.72906652298064    0.75676098269500
H         4.41245944457264    3.65741573665921    1.69176974849654

