45
CSD_code = REXCUS | q = 0 | S = 0 | Stoichiometry = C16H20MnNO7 | MND = 6
Mn        6.30776315748834    5.20114461596184    2.56276604001036
O         4.61768109948009    5.16031641563434    3.48065147915405
O         5.30705080835085    5.15769770463416    0.92332421429159
O         6.29504160631811    2.93768999058322    2.56419574487352
O         5.78635652436055   11.99591044699367    3.59463887270943
N         6.28917536666100    7.15273493641077    2.55812278351298
C         6.57135745542082    7.84437432531251    1.44678423364751
C         6.55060615961827    9.22471924367784    1.39829375643764
C         6.22164018591208    9.93331097184245    2.54371918057623
C         6.17577949176443   11.52784258200117    2.53401346845434
C         2.32601280530928    5.36232767163637    4.08295747222777
C         3.43059954335927    5.29078520186485    3.05601888774120
C         3.09823395170301    5.36443314361331    1.69877506789868
C         4.06757469975317    5.28762697181508    0.69265891854694
C         3.63034474992546    5.35567753324019   -0.75091047059821
H         6.81917606881631    7.25705207579579    0.57099714425520
H         6.78341929147371    9.76119507224510    0.49144655019237
H         5.65647577571147    2.60206718198156    3.20280546889178
H         1.52042213338389    4.67669508875581    3.83195946771945
H         1.91948707771807    6.37168818493834    4.10250618119930
H         2.72212525613938    5.12378700572010    5.06627167711003
H         2.06542422370810    5.48707363355248    1.42042202418579
H         4.46329187763263    5.09866028585718   -1.40000514113574
H         3.30708799435738    6.36949266017632   -0.97906129677160
H         2.79609601129582    4.68371149308626   -0.93456990331131
O         7.95378361613871    5.15754486569764    1.63390552539602
C         9.13969336795084    5.30669898401389    2.05064863537987
C        10.24266753387275    5.35993307011706    1.02074609852086
H        10.99863459197630    4.60817924472985    1.23435212802526
H        10.71808947157531    6.33790976201292    1.04702721343923
H         9.82855751721203    5.18977027886900    0.03032542607715
C         9.47362656756744    5.40660659991694    3.40578695272340
C         8.50973357957466    5.31038732578319    4.41541453114767
O         7.27350773106891    5.15997578625301    4.18770283555104
H         6.05713755740279    2.59674118960787    1.69509245045422
C         5.93251296803859    9.22164688428584    3.69791446968659
C         5.97865591214812    7.84150641213144    3.66367100975117
H         5.75788468741879    7.25209673338471    4.54529233919728
H         5.67408086782545    9.75544177008466    4.59938389223876
O         6.53783877475874   12.00444853239980    1.46740615646913
C         8.95408204494030    5.37232482297147    5.85726272846594
H         8.10762921089336    5.17936650640202    6.51074266043694
H         9.35273891398123    6.36167438949506    6.07206296100079
H         9.73661180236652    4.64183634588948    6.04643672983695
H        10.50880996763049    5.51689605862375    3.68124343438444

