45
CSD_code = REXJIP | q = 0 | S = 0 | Stoichiometry = C20H18MoO6 | MND = 6
Mo        4.24281871657350    8.63946491227989    5.72733857139796
O         4.71380663656834    6.82220478249414    4.63169387486786
O         2.48476400186038    8.08479291077469    5.25202540593813
O         6.05197853384793    8.43386520482290    6.28241711906834
O         4.00212248057229    7.04677823680464    7.18694826184802
O         4.52356976121580    9.45691794715419    4.32508061850106
O         3.83678493660885    9.68797799148073    6.93114812201368
C         4.12863927485942    6.52444621663457    3.56673200431297
C         2.82796105008939    6.95846976919458    3.22591192510408
H         2.43244520949004    6.68833709241110    2.26045705762201
C         2.06705697441758    7.73126020343885    4.08818894107095
C         6.49788499886243    8.39066222263109    7.48791196751612
C         5.83514224757002    7.72208386349539    8.50447181103713
H         6.25068025906443    7.71483509178395    9.49887352441298
C         4.60778448598974    7.05840541446536    8.28165785035749
C         0.72599783303800    8.22700971119449    3.70719101842893
C         0.32725669279915    9.45312777621800    4.24341645791576
H         1.01279313996335    9.97299701480650    4.90375217414448
C        -0.90219982869506    9.98887470778878    3.91131398345028
H        -1.20299524800099   10.94145975670997    4.32069326263854
C        -1.74920246896832    9.30357343894835    3.05387888077271
H        -2.71164668013439    9.72052188111539    2.79665494817309
C        -1.36329088280314    8.08079858528513    2.52793730414509
H        -2.02819696225297    7.54436608177908    1.86709818643639
C        -0.13000027053854    7.54249971636798    2.84728492129927
H         0.15666230330796    6.58068914019027    2.45008429994044
C         7.75704917129245    9.12778071261036    7.73415494525548
C         8.68895972547699    8.75569712405026    8.70040156216886
H         8.52867116217279    7.86874363747273    9.29426678830978
C         9.83787935596502    9.50537398059706    8.87613375383566
H        10.56292244621026    9.21005063967072    9.62021387412312
C        10.06291948852397   10.63139268171719    8.10015638838979
H        10.96013177606482   11.21469382796625    8.24538275899270
C         9.13911165965763   11.00658216243141    7.13678629216236
H         9.31435730066082   11.88406058896517    6.53280567995694
C         7.99401831341945   10.25704913530460    6.94768528958760
H         7.25091495815759   10.53345867564330    6.20760788899933
C         3.99743331294392    6.31444195924121    9.44515242432415
H         3.66895328258533    7.03751417608946   10.18942425100762
H         4.72768238547397    5.65575064944398    9.90885710834628
H         3.13876884173670    5.74003808460716    9.10715338757939
C         4.84876163393288    5.64047341703616    2.57688393215664
H         5.77671981417827    5.27810441874234    3.01160119640825
H         5.07790692550831    6.22416005212910    1.68735235105493
H         4.22292125072557    4.80161440601620    2.28211763492733

