30
CSD_code = REXKIO | q = 1 | S = 0 | Stoichiometry = C6H14ClN6S2Zn(1+) | MND = 5
Zn        2.12325306912575    0.74535346511233    0.06901112814896
S         5.94483041972850   -0.35937486396680   -1.99794039620720
Cl        0.46611514269345    0.18620025319529   -1.15237182416591
S         0.91484865364599    2.55565955576270    3.99611411495407
N         1.80496356030439    2.02213088571038    1.60859845050339
N         3.92121633221271   -0.07706226723603   -0.38449427996373
N         1.38211316095909   -0.70158134568062    1.76147131155176
N         2.90328931660024    2.17422959521794   -1.62247467550487
N         1.12071984387525    0.17175156206886    2.82928050000084
C         4.52165378769840   -1.31332464041937    0.07178552416141
N         4.11742443125291    1.57669043938234   -1.99901801651718
C         4.51371632853322    0.44089344176489   -1.40387261128094
C         1.30895229503633    1.49084290612588    2.67213869209283
C         5.91311210316654   -1.47717715006010   -0.55755707143788
C         2.03120686005365    3.44801877767419    1.72119093422116
C         1.27192842980533    3.99715940787822    2.93797771580393
H         1.91167408318687   -1.50683017396547    2.09541414035239
H         0.51469313352367   -1.04338241184461    1.33690080817829
H         3.03960186424089    3.17768668026379   -1.50156307732613
H         2.17996278137869    2.03166501770920   -2.33373156161554
H         0.57051620817895   -0.14853482728235    3.61849259571702
H         3.86529179014949   -2.14153732565168   -0.21759614425358
H         4.59654914430243   -1.29390483504044    1.16093486089922
H         4.55533886845523    1.83862574906738   -2.87529549881595
H         6.71249208418253   -1.16649210190763    0.11453501562839
H         6.10171502992800   -2.49211082439374   -0.89787229011650
H         1.68882347814251    3.93899550632576    0.80839640865709
H         3.10884041519193    3.61828462283136    1.82486383819764
H         1.85582486200992    4.71493106799494    3.50844065796076
H         0.31703252243710    4.44399383336520    2.66274075017942

