44
CSD_code = REXLOY | q = 0 | S = 0 | Stoichiometry = C15H24N2O2Pd | MND = 4
Pd        7.39961489700838    3.81007794616959    3.58968435015744
O         6.89768929897390    3.20629515593437    1.71456179491212
O         7.66426620058993    5.62093903034285    2.70601634878921
N         6.97824707556902    1.96777678594480    4.32790948974968
N         7.81604453055360    4.60230300706518    5.41078196408330
C         6.05214111848371    2.29180272076340    1.51420168877823
C         5.49783820809961    2.18385224613618    0.10567674698486
H         4.41964755396527    2.33055997114158    0.11979359776667
H         5.70487596447734    1.19965788174577   -0.30961762309900
H         5.95587347265134    2.94512279327297   -0.52054755288727
C         5.61153315225463    1.35407232882802    2.44231664687180
H         4.87140174643699    0.64750816170515    2.09942285717978
C         6.11192515693174    1.17068905304429    3.74143957771323
C         5.63471014699831   -0.07518439750764    4.45055882204954
H         6.44087870046744   -0.80540026515361    4.52269521181013
H         4.81227978501363   -0.53053967007146    3.90794516528846
H         5.30090520456936    0.15806289297128    5.46036974121978
C         7.58676464741115    1.51670415522820    5.56050241029780
H         7.95204174109467    0.48848446023775    5.42917535351196
H         6.84303096741213    1.50164096630840    6.37279282943779
C         8.77826668453839    2.36766981489337    6.03291335609663
C         9.37816734575852    1.67155039361616    7.26286509389095
H         8.64063746984828    1.58078186169311    8.05755244300708
H        10.22454764793268    2.23650410307846    7.64555190863725
H         9.72592042228546    0.67439968309937    7.00446068900925
C         9.86489062522820    2.47076969173539    4.95421990380733
H        10.21598291575602    1.47599058602580    4.68773674775151
H        10.70674363145368    3.04698355047575    5.33259422338232
H         9.48106686849841    2.96630426791030    4.03918190158522
C         8.29145579135115    3.75596252716594    6.48359620965485
H         7.49896388639147    3.60634710255544    7.23384720443892
H         9.13434251691743    4.24847488371135    6.98820641728177
C         7.61582016218321    5.87534056777181    5.67335980795035
C         7.69681717368271    6.37263276434085    7.09784563943742
H         7.09274808899423    5.75376613248146    7.75930141873974
H         7.34666390171324    7.39796034567374    7.16331293564104
H         8.72653955591545    6.34143817248694    7.45436444421759
C         7.37516091501358    6.86198948937017    4.70366747006705
H         7.18474267651839    7.86223023896845    5.06123688884553
C         7.46105370825402    6.70133319652424    3.32471550331850
C         7.34405455064947    7.95264716064810    2.47401609258954
H         8.12821385124491    8.66045031830090    2.73356145693596
H         6.38133390841603    8.42948357230782    2.64374481554231
H         7.43355613249291    7.68396435105691    1.42496800755642

