58
CSD_code = REXMEP | q = 0 | S = 0 | Stoichiometry = C25H28Cl2N2Zn | MND = 4
Zn        2.54557896924788   -0.07889833278130    2.00910267707161
Cl        0.61761782536922    0.98410834105872    2.08745854048488
Cl        3.70674255140379   -1.28276005771980    3.43737928891196
N         3.89602364512047    1.31401441753298    1.04690262353944
N         2.58049002531725   -1.16197967768604    0.13256780736011
C         5.99341764526585    4.34012441888984    0.71550357661831
H         6.60606531878197    4.78228764144317   -0.06919273504286
C         1.69537534622849   -3.81905225206326   -2.28082207760577
H         1.92193053689154   -4.03087416442514   -3.32504028541521
C         5.32505521124408    3.07576272187515    0.29307330117269
C         2.35742772945997   -2.58071677165240   -1.77846391605961
C         4.54269773495305    2.44580756506462    1.28261619152308
C         2.07128723801299   -2.24264173840828   -0.43983308110304
C         4.41857528174082    3.07507232853877    2.63552827236303
H         4.77467997902388    2.36445079758260    3.38743805634157
H         3.36191095990965    3.25529443691953    2.85004210866706
C         1.17769745343012   -3.13034850354545    0.36964859492181
H         0.32693104509702   -2.54104975680121    0.72487592696132
H         1.71801065826583   -3.46790700860035    1.25800616045606
C         5.23404429457719    4.36197279156619    2.68654864308249
H         5.17770820411711    4.83864923775281    3.66439891131628
C         0.70010806328038   -4.30146068922122   -0.48128261078210
H         0.03107912130749   -4.95845788241578    0.07307659989208
C         4.95570997895411    5.24492190336744    1.44322325379639
C         1.88388359537177   -4.95823928163183   -1.23638325200201
C         6.62262463786210    4.06630713021766    2.09688435603794
H         7.37926085729910    4.79402571583300    2.37347588340361
H         7.01310543056227    3.06267210913508    2.25534157864296
C         0.22180686855226   -3.74222961850430   -1.83103798496674
H        -0.22298039721312   -2.74889200229415   -1.81396167364828
H        -0.42799257088163   -4.41758005620662   -2.37895280051302
C         5.46387323974302    6.67198741133180    1.62112782680375
H         5.47120439380534    7.18897967446226    0.66341531083580
H         6.46804583964384    6.70322011556987    2.03225147767808
H         4.80460714780249    7.21457100904608    2.29541198636441
C         1.51932087132199   -6.32544397794114   -1.80587580148605
H         2.27348225189736   -6.64644208918032   -2.52193922022402
H         0.55603944459980   -6.31916939714370   -2.30627709547814
H         1.47908472027305   -7.05827544334102   -1.00276141289013
C         3.53940872725073    5.30657979855873    0.88775571049417
H         2.88747000600984    5.80216017294604    1.60398298074123
H         3.12304967139757    4.32703175911053    0.67414344638209
H         3.53184429657672    5.88318933526691   -0.03579565187316
C         3.22969026553911   -5.07489621222415   -0.53394251711239
H         3.59551398424325   -4.12485061633781   -0.15700041813846
H         3.97206877033240   -5.46987899994431   -1.22553538750265
H         3.14575595026431   -5.76261232211303    0.30481881884871
C         5.44008668428683    2.51732805068195   -0.97517494567167
H         6.03762488192941    3.00161737009410   -1.73439504180381
C         3.19487633490968   -1.77706726161423   -2.54424892912259
H         3.41465149332196   -2.03651651893535   -3.57010867946449
C         4.76311174954560    1.33488987242661   -1.21708814054081
C         3.72279261573202   -0.64790711616823   -1.94320875911648
C         4.01429215335675    0.79752969259296   -0.16733182295179
C         3.37591940020653   -0.40775407220433   -0.61145395512625
C         4.63642343814045    0.44743656571582   -2.42771857828170
H         5.60602133869110    0.05462354430689   -2.74226108240684
H         4.20666709062578    0.98328589221693   -3.27711205438306

