43
CSD_code = REXNUG | q = 0 | S = 0 | Stoichiometry = C21H15Cl2N3OZn | MND = 5
Zn        4.52294517681780    6.86465660110306    2.53047702546404
Cl        2.68745974447561    5.95930084893660    3.46853759274116
Cl        6.07821846180927    8.06163206976085    3.56211010964784
O        -1.28412921986140    1.67036876369395   -4.18602807517003
H        -2.20419847371017    1.93352453825037   -4.05954057233814
N         3.94151785928187    6.07609658642517    0.64542527702218
C         2.92158021072733    6.69628436737030    0.06752938919224
C         1.28554475641289    3.87316954495634   -1.78995707306552
C        -0.47078434348951    2.40575094682256   -3.39208382974823
N         3.53151389774092    8.51306527475144    1.45805069115510
N         5.69316421776715    5.01958767261071    2.25174064379720
C         2.02966028084307    6.00883359462653   -0.74687883980152
H         1.19844469079127    6.51375753404413   -1.21107839271681
C         2.20842957348147    4.63989247436619   -0.94757832882176
C         4.12123717112772    4.77011265894241    0.49844558194433
C        -0.08416133533030    4.12429998823176   -1.75696626760259
H        -0.47608543346027    4.87235270153657   -1.08456368975068
C         3.27704057607779    4.01356571539639   -0.30551672960591
H         3.40184420794569    2.94683600886128   -0.39431915896120
C         2.79838733766160    8.12137608324546    0.41434816736207
C        -0.95459185617842    3.39551327195239   -2.54209156141145
H        -2.01772816533292    3.59063368702143   -2.49551756200011
C         1.76055837584060    2.87313122650611   -2.63920506060385
H         2.82128065741872    2.67901917060948   -2.69511303861645
C         5.22376046213502    4.21257321065340    1.29843635453434
C         5.74984428697721    2.93763984247267    1.10740332152230
H         5.37845765617965    2.29840511086319    0.32266572377180
C         0.89904171517575    2.15292002007730   -3.43707357296054
H         1.26147221048258    1.38709360839743   -4.10376944941305
C         7.24265093688245    3.35375295631498    2.92470487089999
H         8.03542209011465    3.05242599895554    3.59014571192143
C         6.77142708713548    2.50466209783373    1.93689207691658
H         7.19311582918617    1.51844940389691    1.81002257881294
C         6.66922284864465    4.61216439690656    3.04027746876935
H         7.00053697042918    5.32532296797630    3.78260949807576
C         2.68061703512899   10.71812782895291    1.25201518363087
H         2.65991299132102   11.73213280425066    1.61736669017787
C         1.97751196753603    9.01538119917160   -0.26810516279782
H         1.40525315408476    8.69679595116552   -1.12456792713451
C         3.48059863290492    9.76600797918932    1.86786463071043
H         4.10855828123796   10.00797778514713    2.71431450404036
C         1.91830039958852   10.33088162355449    0.16218715134080
H         1.28654707599508   11.04192388418198   -0.34951595093512

