43
CSD_code = REXPAO | q = 0 | S = 0 | Stoichiometry = C21H15Cl2N3OZn | MND = 5
Zn        4.68469840482357    6.84195041439918    2.57806081664400
Cl        6.29461131544473    8.00993391935865    3.55828608383258
Cl        2.88048578583258    5.95485082163253    3.58631530307286
O        -2.27613830624710    3.82327837868136   -2.34775117795205
H        -2.79776556346825    3.26669206992310   -2.93879352829485
N         5.81184175433050    4.97776221075485    2.25529957580947
N         4.02180554599492    6.06155657480478    0.71410537512664
N         3.68374486137499    8.50461854112683    1.54040876146249
C         6.80173514453980    4.55167180478250    3.01612964993502
H         7.17865090197691    5.26443271595136    3.73696329399137
C         7.33415666377027    3.27553956372039    2.89885473801334
H         8.14005838786824    2.95952236234235    3.54133275703434
C         6.80430693912302    2.42807097751609    1.93980434229475
H         7.19126552091715    1.42766942983868    1.81358996018213
C         5.76848308717169    2.88072418666456    1.13892840155163
H         5.35153671905053    2.24135775996822    0.37752669137158
C         5.28695275171835    4.17339092922521    1.32900406828643
C         4.17596252988039    4.75380706533602    0.55728845533915
C         3.30349693697385    4.01792003553472   -0.23713319037106
H         3.40663367508491    2.94986816406441   -0.33700374658753
C         2.24051402861249    4.67010307509357   -0.86034847925517
C         2.08754325564881    6.03931762235263   -0.64762271698834
H         1.25857299923919    6.55989490087934   -1.09784570372997
C         3.00345696530608    6.70470760651537    0.15952065922307
C         2.91000159710360    8.12864316260676    0.52024672656995
C         2.07470728313505    9.03637960889140   -0.12578471615252
H         1.46726519369553    8.73053714876982   -0.96229687810926
C         2.04447640361682   10.34895764489135    0.31635977337229
H         1.40137015724989   11.06995221999384   -0.16642881370223
C         2.84971411890445   10.72005412694909    1.38067381061481
H         2.85266052676281   11.73128372668098    1.75415737091438
C         3.66106736639935    9.75500290672776    1.96059661013324
H         4.32149002133462    9.98410160561916    2.78564071382485
C         1.29621463654445    3.93036480425654   -1.70838699439860
C        -0.06298283508171    4.20953887472275   -1.64788129498417
H        -0.45187870412523    4.94136884889368   -0.95807976316440
C        -0.96009166397476    3.51357518419972   -2.45059015928769
C        -0.49113777783825    2.53973677985569   -3.32584282250231
H        -1.18691711198765    1.99876578891637   -3.95295531431066
C         0.86362550727612    2.26631419260079   -3.38930967578154
H         1.22274707863785    1.51236894317867   -4.07345961275414
C         1.75626384953636    2.94910204685772   -2.58575120311849
H         2.81329404782106    2.74301125491062   -2.65652814714165

