30
CSD_code = REXRAP | q = -1 | S = 0 | Stoichiometry = C12H13CrN2O2(1-) | MND = 8
Cr       -0.55107947833288   13.75414914218413   21.38306136326359
N         1.62173197150129   15.82380339021038   21.93807162904227
N        -0.32838646807611   16.73835029197902   21.80558473089832
O        -1.74324740610475   14.55870655016388   18.76538838096617
O         1.32859934409297   12.82848229782461   19.25833692535909
C        -1.29888430240075   14.27834607828803   19.83510741846580
C         0.63143638689445   13.21999485432809   20.14321202278153
C         0.30518475382186   15.52015729864932   21.65530271400197
C         2.68943435718834   14.87352315948885   21.91215051255443
H         2.32340451582451   14.00720846831341   21.35489725916790
H         2.96738367431608   14.55817793254426   22.92371015952194
H         3.56866374084477   15.29715032793955   21.42077849886488
C        -1.72611416488704   16.94452236181124   21.58867392985270
H        -2.07498285405295   16.11836993380637   20.96260910824979
H        -1.89754830332413   17.90002510208837   21.08742040120767
H        -2.28314754201310   16.93627235491891   22.53203355743178
C         1.77913314719971   17.15674531563379   22.23031441290653
H         2.73335592717661   17.58659089407790   22.46888085901304
C         0.55944004852115   17.72874768974384   22.14738094927296
H         0.25705027277177   18.74745604714984   22.30048595603017
C        -2.10633151576136   12.47319766397457   22.32292340493297
H        -2.94944642650793   11.98047093279251   21.84857779985004
C        -2.17794845972583   13.67341771086856   23.06971549027607
H        -3.06331042047333   14.28445779783645   23.20318544139183
C        -0.95317605121740   13.84422170668856   23.72628499749158
H        -0.72137634010206   14.63418971415534   24.43587290869640
C        -0.11669040105787   12.75921603287491   23.41408600731046
H         0.83670117673857   12.53972028381737   23.88080225381340
C        -0.83013161454658   11.90273839338705   22.54098968515143
H        -0.53061756830672   10.89519027246265   22.26906122222837

