51
CSD_code = REXRER | q = 1 | S = 0 | Stoichiometry = C26H22AuN2(1+) | MND = 2
Au        1.96591683197160    0.17362978500718   -0.12329099689796
N         1.78457796785467    2.02526230134396    0.62808679748466
N         2.16503698133617   -1.67864984257624   -0.86801331837901
C         2.43850770161944    2.56618656751648    1.59888848174417
C         3.54696579618109    1.83711488307510    2.22386379026513
C         4.54221242848369    1.24628491953981    1.44635594018828
C         5.59031557113317    0.57878846786511    2.05110608510012
C         5.64783688112296    0.47889247236781    3.43165336978426
C         4.65844124169166    1.05810230965373    4.21027200868856
C         3.61805785685746    1.74473793069594    3.61385571950465
C         2.12147436843344    3.89632460577059    2.11156493435775
C         3.13085900399145    4.69078566339460    2.66526301220990
C         2.84315047211083    5.96041376895120    3.12649927985114
C         1.54765353999188    6.45009022157088    3.05979112373778
C         0.53683423579909    5.66641617582447    2.52355482675616
C         0.81929443475525    4.40271327654366    2.04427509549207
C         2.80107904980026   -2.68405991224363   -0.37020815009745
C         3.37626803048845   -2.58918437454978    0.97507250363558
C         4.68805288556149   -3.00757857876379    1.19939795015996
C         5.23489066400172   -2.92525737299792    2.46574187110152
C         4.47603747912044   -2.44791691670386    3.52259691250126
C         3.16884107954497   -2.04181017457303    3.30895020027342
C         2.62110013172139   -2.10289967981721    2.04173303790035
C         2.97503096554129   -3.93738802795463   -1.09980582695078
C         3.03078654198358   -3.95325449189698   -2.49740465106654
C         3.18977384487719   -5.14536999944754   -3.17564585829991
C         3.27813645099259   -6.33893841377889   -2.47497112511644
C         3.21795531719033   -6.33571966344120   -1.08973368087082
C         3.07596370738893   -5.14590798402548   -0.40288621029260
H         1.06009259555511    2.61925470152017    0.23747087455038
H         1.77045968291696   -1.85517469423658   -1.78638794044588
H         4.51921538069102    1.36210372844445    0.37314538986112
H         6.36928379196941    0.14416948223151    1.44392580036877
H         6.47185273817304   -0.03602274104282    3.90034950361184
H         4.70383095506111    0.98579864876419    5.28591292870419
H         2.84756335246480    2.19944401866631    4.21859057511046
H         4.14260550380880    4.31638872718467    2.70466211383733
H         3.63080375869809    6.57020925816014    3.54092315782023
H         1.32454946963276    7.43960224373259    3.42720675953493
H        -0.47363834972470    6.04233293645345    2.48035941570066
H         0.01779124942925    3.79010538166388    1.65542040054523
H         5.27694555335025   -3.38141979388810    0.37503584732062
H         6.25164079722185   -3.24671089655524    2.63065353147682
H         4.89711668200895   -2.40738417484801    4.51502813722776
H         2.57075555221965   -1.68630357019643    4.13371660793049
H         1.58924107040435   -1.82804509420637    1.88243008480940
H         2.99307093461446   -3.02643112267676   -3.05283518285944
H         3.24642475898652   -5.14528971870256   -4.25315525287235
H         3.39643756415105   -7.26914960486429   -3.00844626224295
H         3.28373056300496   -7.26390684025183   -0.54373670855796
H         3.01447493377074   -5.14657879161883    0.67486709586124

