27
CSD_code = REXRAN | q = 0 | S = 0 | Stoichiometry = C13H11AuClN | MND = 2
Au        2.91924623818904    0.24822369555559   17.23561108916444
Cl        2.83734455428751    0.27983580343191   19.45182810154700
N         2.94213051583051    0.18042579356539   15.20949783055665
C         2.07245365906526    0.61992620627035   14.37042604383482
C         2.13867517271602    0.31203049848928   12.93741572291748
C         1.68629685540398    1.24090406999952   11.99820054419895
C         1.76899322270109    0.96234844896577   10.64745145031778
C         2.28660631763722   -0.24848950650537   10.21514097463418
C         2.72856485414914   -1.18127013806169   11.13997499881145
C         2.66361851768478   -0.90255610956436   12.49150990093911
C         0.96108746627152    1.45282742470927   14.84097898739787
C        -0.33678110166865    1.18053385476415   14.40918367633628
C        -1.39706604430581    1.92901099943703   14.88426906542237
C        -1.17265595519063    2.96837912945980   15.77280201971268
C         0.11753753937889    3.26115185788225   16.18456868661033
C         1.18063768614339    2.50458633043743   15.72896880219212
H         3.68938648196421   -0.36354481549400   14.79007874872091
H         1.28994885203294    2.18732423860989   12.33465358292464
H         1.42626826888687    1.69066058463849    9.92818214650153
H         2.34281446145553   -0.46685306052208    9.15957831147830
H         3.12378316622823   -2.12872023375074   10.80625538380386
H         2.98773739061598   -1.64594312360861   13.20661968112011
H        -0.51099164237521    0.36369267175262   13.72378533018106
H        -2.40129180999276    1.69976403780871   14.56080523544744
H        -2.00297502220409    3.55126425414194   16.14166000750931
H         0.29642260162139    4.07709387622039   16.86777850661844
H         2.18760775347377    2.74239321136707   16.03557517110116

