135
CSD_code = REXRIW | q = 1 | S = 0 | Stoichiometry = C56H74N2P2Rh(1+) | MND = 4
Rh       -0.26533521402264   -1.38467357246072    9.98965112661570
P        -0.82028061495657   -2.10917391642738   12.07480519758802
P         0.59631865141851    0.42365901010151   11.07115147485674
N        -1.10848954692700   -2.87907966047116    9.15986905500487
N         0.32608770424118   -0.77436932907501    8.28450374208755
C        -0.30284681735831   -0.99154243535412   13.21908520894504
C         0.36687639605737    0.25089196501402   12.72801488707255
C        -0.14568588333086   -0.48538472157002   14.57879063658993
C         0.53718890682918    0.65447570014972   14.11971727463936
C        -1.67316568287531   -3.78504323367465    8.72832455117314
C        -2.36814699941345   -4.91519104033996    8.20012459049311
H        -2.59396211948905   -5.61584814943495    9.00465627827243
H        -1.75144056860997   -5.41534363891361    7.45320051313830
H        -3.29974255941720   -4.59208469586283    7.73495189198467
C         0.73611031938451   -0.39315113047168    7.27841225576495
C         1.23998126343283    0.08868039612119    6.03209469836832
H         1.97558524360071   -0.61132835332103    5.63399493274188
H         1.71282906578373    1.06100597250090    6.17637778470734
H         0.42174314772293    0.19164077637383    5.31841226207177
C        -1.42516519015392   -3.64167171660487   12.83840583121473
C         1.28850045968146    2.05553866551589   10.68155881538490
C        -0.66144829450671   -0.94336870187161   15.83583664081252
C         1.29749468051468    1.71423489498530   14.71815170984851
C        -0.51305415608891   -4.68175859448868   13.12911651943875
C        -0.97246641236360   -5.74845309936220   13.89321770707534
H        -0.29384109562321   -6.53761109214920   14.14738550693803
C        -2.27219324631845   -5.83716325460773   14.35933312637913
C        -3.15601710593937   -4.83368596562768   13.99161669542318
H        -4.17164187527125   -4.91492509364642   14.33002590223866
C        -2.78158101347667   -3.74323154212768   13.22253903123984
C         0.95037399794306   -4.72223269041340   12.65902316753010
C         1.79251282646755   -3.68070971118861   13.40894932835853
H         1.51472864426866   -2.66518325367727   13.13789456609915
H         2.84400872283396   -3.81607773979648   13.16591969665801
H         1.67181903604573   -3.79704061170243   14.48386501818932
C         1.05360762725080   -4.50109331785823   11.14189511138090
H         0.96229312827843   -3.44482557232266   10.86356596247380
H         0.28835707761798   -5.07472376179436   10.62209291165164
H         2.02682934338439   -4.83387710208509   10.78772288454826
C         1.60886248480832   -6.08718798397322   12.92896506299945
H         2.61260211702051   -6.08192496323016   12.50929774367926
H         1.05691984767961   -6.89763511919038   12.45858149954032
H         1.71164755738786   -6.28373084373343   13.99289721385208
C        -2.76510169098415   -6.99360477935302   15.21382196240819
C        -3.26805898510675   -6.44788303109089   16.55719362636063
H        -4.04346846483453   -5.69874952469693   16.42216026419500
H        -2.44621342816992   -5.99704838753980   17.10946045752743
H        -3.67714688788838   -7.25712840922581   17.15713797269354
C        -3.91310286948642   -7.70087914558634   14.47855609229550
H        -4.76314785740484   -7.04028466981870   14.33275701534140
H        -4.24877784259055   -8.55973969411127   15.05441816357230
H        -3.57849422691836   -8.05103647728795   13.50396526208218
C        -1.67440067954188   -8.02938491385730   15.50057061532507
H        -2.08571856619338   -8.82043861856665   16.12321386731480
H        -0.83913487553375   -7.58532964564207   16.03742865318659
H        -1.31065790672623   -8.48460272573651   14.58208213755970
C        -3.86431668032638   -2.72703550557051   12.83770700758051
C        -5.28001689300430   -3.24139543023108   13.14991920731681
H        -6.00680769492900   -2.53196048496298   12.76008579456941
H        -5.45247693404256   -3.31851706507170   14.22017174989204
H        -5.46919916844132   -4.20344903132588   12.67894897387901
C        -3.68322222523626   -1.42502885319482   13.62971471049882
H        -2.79822695926995   -0.88084412819994   13.31091635865895
H        -3.59048073145999   -1.63859263937616   14.69249241591324
H        -4.54609390778587   -0.77984604417131   13.48115214442755
C        -3.84305916163016   -2.44709679801871   11.32881346114970
H        -4.71120747680389   -1.85224668110988   11.05338107782393
H        -3.87644981117638   -3.38238377883622   10.77285647709663
H        -2.96001446906213   -1.88438818340405   11.01951335708588
C         2.68279261167356    2.25546415358903   10.75333483735040
C         3.15375161885319    3.56217269366225   10.75941146587974
H         4.20593360639251    3.73480126813946   10.87007321855323
C         2.31806682476534    4.65862711133999   10.63870153033838
C         0.96727284880916    4.41619827102759   10.43559278748800
H         0.32970726467362    5.26455091146049   10.27591194814108
C         0.41480472939995    3.14435798096233   10.45308917779705
C         3.71214895654352    1.12050455463095   10.81229978259463
C         3.75229356549089    0.50191385978753   12.21601773214905
H         2.84490054166398   -0.05578916002655   12.43310624247224
H         3.86582106025753    1.27899220641061   12.96888129745077
H         4.59498475498105   -0.18119194874127   12.29424478003938
C         3.40323586578744    0.04458680930396    9.76212536463243
H         4.23585390613400   -0.65209475862214    9.69292648297493
H         3.25610457774225    0.50267653919777    8.78566565052107
H         2.51786980734486   -0.54297108692965   10.01385426973418
C         5.13387986994332    1.61947533004411   10.50126841307829
H         5.52300882546832    2.24848984626296   11.29726578604759
H         5.16794588166797    2.16237883986846    9.55941252172083
H         5.79965483015095    0.76318629584914   10.41793212446282
C         2.83405861038913    6.08815013591641   10.64611392368108
C         2.74794046311569    6.63224039670132    9.21244679402848
H         3.11260353018381    7.65587234686555    9.17946945821560
H         1.72291450303988    6.62171066615083    8.85021100686166
H         3.35467578438620    6.02842221245525    8.54056392706203
C         4.28774108433674    6.18281641004078   11.11942203825962
H         4.40805063713823    5.73489388585500   12.10360458021024
H         4.57906017142282    7.22836119638512   11.18647487927288
H         4.96622551895545    5.69829809131991   10.42137538153488
C         1.97516102588158    6.95788342238793   11.57500987919265
H         1.94509428448063    6.53516172639902   12.57675011756710
H         0.95516372387230    7.05338469378964   11.21434234466486
H         2.39772193954736    7.95761022937572   11.63879769701637
C        -1.09743969608732    3.01185961421840   10.22032413797348
C        -1.72065771809640    4.32602715049042    9.71783090785690
H        -1.23253350145061    4.67711537456321    8.81148927042574
H        -1.68782615380264    5.10437006724035   10.47571778229241
H        -2.76947778081270    4.15354528960321    9.48597183966889
C        -1.81654004876393    2.65841601919161   11.52962096534354
H        -2.89305062530231    2.69937669502986   11.37953316985446
H        -1.55226356920975    3.36681848480329   12.31196076769346
H        -1.56298328263357    1.65661205339749   11.87014151528865
C        -1.40224356832915    1.95863297819168    9.14428402104399
H        -2.41223963285726    2.09987863743525    8.76577201060308
H        -1.35292132969955    0.93687988866506    9.53538383941462
H        -0.70940209258322    2.05600040438622    8.31043952356006
C        -0.98543877140140   -2.29137765276422   16.01708154294600
H        -0.80694351997095   -2.99054554306273   15.21539566682048
C        -1.51436933312982   -2.72708536400818   17.21449537799111
H        -1.75717350764469   -3.77112841585418   17.34205129825969
C        -1.73779428610279   -1.83091731445927   18.24815057645019
H        -2.15332771775384   -2.17463258304733   19.18309784328004
C        -1.43050962362459   -0.48945865894390   18.07530862540462
H        -1.61294255775730    0.21256622141658   18.87502404250920
C        -0.89693070484203   -0.04452490386798   16.88324112860660
H        -0.68178547062507    1.00401971792311   16.74246878316513
C         1.87646226285571    1.55110829880710   15.98229181410926
H         1.73481953656578    0.62337429926722   16.51616319355550
C         2.65144129939935    2.55408871836161   16.52757318806771
H         3.09774811918451    2.41629513616769   17.50096322337246
C         2.86464998615217    3.73293049941768   15.82864451315648
H         3.47207383991830    4.51459124333168   16.25883533170192
C         2.29802617018444    3.90156313821630   14.57506626823332
H         2.46477691798794    4.81566077592631   14.02509230901158
C         1.52242456726987    2.90429093024642   14.02040547482112
H         1.07365110915913    3.04130654228794   13.04944776610578

