143
CSD_code = REXROC | q = 1 | S = 0 | Stoichiometry = C60H80P2Rh(1+) | MND = 6
Rh        2.86030532096756    1.02153128164454    2.20521432633015
P         2.11811768221777   -0.81764056046486    3.46865257394633
P         4.25551646206879    1.37987534279289    4.00584326424882
C         3.07173283298605   -0.92262356673479    4.85106752123328
C         4.03550269829928    0.17241782568828    5.15000854030057
C         3.51974656111423   -1.58460297475641    6.07918391739276
C         4.36939330108497   -0.51052844004305    6.39522673726854
C         1.09259496802513   -2.32244433422962    3.35530153586397
C         5.54343597377631    2.58130736848756    4.45542752278018
C         3.32977465493189   -2.90976054267318    6.59733808801107
C         5.16608622480465   -0.11307524157399    7.51946779533366
C         1.10117325243390    1.64147914086677    1.02009866360960
H         0.26627844675750    1.58624825695163    1.71488377781679
C         1.59832736838539    0.46376814776867    0.49643018543445
H         1.07863243117250   -0.46265058684340    0.74044561230524
C         2.42295775485507    0.39305228400192   -0.76540523235658
H         1.76294912256529    0.55171439830756   -1.62438836193519
H         2.83256310768418   -0.61318723577058   -0.85990700145096
C         3.58089943793520    1.40983428944561   -0.79992694931552
H         4.40500830549839    0.97743853512782   -1.36932246057355
H         3.27652379778998    2.32040868768877   -1.31745622674091
C         4.08791943514379    1.78377859696181    0.57402482318451
H         5.10016473219494    1.43801133592693    0.78573780205060
C         3.61764054222759    2.86466197298053    1.30363447738909
H         4.31117004482716    3.34852323838203    1.99263389388277
C         2.48681357145494    3.75977141413175    0.86528186627202
H         2.85717189996202    4.43852635903697    0.09006130634622
H         2.18469592384746    4.37699939003018    1.71297646102561
C         1.26153702039037    2.98540930823299    0.35030314826157
H         1.32426669641006    2.83857271813603   -0.72815184572887
H         0.36724782943639    3.57987359562315    0.54350406455046
C         1.64846559938080   -3.50840037193910    2.82319084319193
C         0.90515539420139   -4.67795618863275    2.93563600185553
H         1.32451497675294   -5.59489051720352    2.57436530671116
C        -0.35826511148209   -4.72290053201924    3.49563323256183
C        -0.89159073900175   -3.53167605457166    3.96200939772174
H        -1.87760386236123   -3.55874842913257    4.38511729470329
C        -0.20722336987983   -2.32705493097052    3.91624105370827
C         3.02157297581363   -3.62659110000935    2.14127216819960
C         3.17591169790764   -4.95385709517757    1.37524988989996
H         4.10188018902686   -4.92574400479137    0.80475033665340
H         2.35881459205368   -5.10830494437071    0.67446722863689
H         3.24621871360149   -5.80417769671362    2.04800649835658
C         3.23899442173056   -2.52837456389614    1.09485539988394
H         3.36730370771002   -1.53813397948068    1.54326445533439
H         2.39874916924172   -2.51129647049479    0.40378310708979
H         4.14545378352040   -2.73807343549892    0.53038946863578
C         4.14271578514681   -3.59179172401629    3.18948688108462
H         4.26644118077679   -2.59881868188446    3.61122409170075
H         5.08460617411183   -3.88047629115026    2.72853818640064
H         3.92817541685212   -4.28673171598413    3.99824728997956
C        -1.18411039990721   -5.99607367915315    3.57178664894960
C        -1.61395650407989   -6.25476578045320    5.02212303422531
H        -2.22392915906237   -7.15339216763774    5.07105281245983
H        -2.19624441508288   -5.43173219157706    5.42649267745665
H        -0.74139535118966   -6.40215904186053    5.65473543008321
C        -2.42838171286328   -5.81307820536552    2.68983610538614
H        -2.13648609409180   -5.60467592270658    1.66254396882588
H        -3.04825097077244   -4.99306728803630    3.04223887213912
H        -3.02736986952123   -6.72020627638896    2.69944411437808
C        -0.42060958469045   -7.22822155370776    3.07865405503626
H        -0.15864563998148   -7.13690488870666    2.02713345109450
H        -1.05033493492161   -8.10810773799751    3.18705253096100
H         0.48316878729859   -7.39054320033147    3.66216486558992
C        -0.90449767763055   -1.10109239224950    4.52181334097067
C        -0.77164904047800    0.12676667648202    3.61404917182773
H        -1.52549552236613    0.86679489373921    3.87460724718050
H        -0.91782052111185   -0.15889220940194    2.57342806848277
H         0.20051977840908    0.60672951446257    3.73820668937932
C        -0.30481282038724   -0.79676640298719    5.90233466948092
H         0.75432196377345   -0.55718216465819    5.83381803157330
H        -0.42320645609515   -1.65051450938100    6.56586611071383
H        -0.81784668460875    0.05347513216493    6.34614981108023
C        -2.41274985620593   -1.32503913564189    4.72497117608284
H        -2.61561724853887   -2.06179454597255    5.49750674492654
H        -2.89690462077003   -1.62467284480113    3.79836072863015
H        -2.86657406631712   -0.39289510023114    5.05447812402987
C         6.88418256459124    2.36930447202303    4.06648880674571
C         7.80812142841874    3.36380597193998    4.36756530519801
H         8.82897972433851    3.22977812517645    4.05650718934374
C         7.48804923003928    4.52191401580148    5.05120907474631
C         6.17150112299920    4.67791436821123    5.45183240397556
H         5.91967841532062    5.56033068449688    6.00403030799397
C         5.17710220044826    3.75447398302802    5.16305385184699
C         7.50306311067398    1.16890814170813    3.33284147727583
C         6.62032963114557   -0.05780237534522    3.09843526993499
H         6.29779562048340   -0.49958975925710    4.03908309982803
H         7.20733563781444   -0.80676542149190    2.56782116792216
H         5.74899430082737    0.15794471610731    2.47816427944988
C         7.98607057274879    1.66292600471687    1.95818655298784
H         7.15653455477497    2.08248261524394    1.39154234854864
H         8.41194055340787    0.83818104379195    1.39151834408934
H         8.74565586110575    2.43304123917442    2.04976011862158
C         8.70074555137722    0.64537772611063    4.15076521988534
H         9.50774037160995    1.36557117649659    4.22941724509445
H         9.10672075299746   -0.24422928947045    3.67506982211192
H         8.38342764740089    0.37839853536531    5.15672410650303
C         8.56985158012184    5.54624184461746    5.34714946491474
C         9.62343632012014    4.89660652920412    6.25577067221655
H        10.40719444326039    5.61346978767989    6.48719012326154
H        10.08249458387152    4.03310339605510    5.78200064946039
H         9.16763623553256    4.57286190307804    7.18927139551452
C         8.02969022393627    6.79253539716454    6.05346083148459
H         7.60576961275830    6.54544822451110    7.02403811648493
H         7.27722275896778    7.29280418858007    5.44794706428850
H         8.84467306619815    7.49336627620172    6.21784827989391
C         9.21898333352433    5.99014442965630    4.02843130421040
H         8.46892113858407    6.40749425878298    3.35972624724334
H         9.70823215367494    5.16352635767960    3.52093832541864
H         9.96792346199774    6.75352283679653    4.22323867022027
C         3.76207368645155    4.06127539136814    5.68057292343766
C         3.36289785041693    3.03908058782533    6.75499892954935
H         2.46045477170164    3.37222987020110    7.26224787168358
H         4.15436575054198    2.93989489719310    7.49473744625368
H         3.16374810347128    2.05996881999455    6.33105091168573
C         2.73216165524716    4.08794482141665    4.54428154449127
H         3.03173613657959    4.82165675842555    3.79855836321726
H         1.76128415982811    4.37760590993988    4.94087219522750
H         2.60418398856091    3.11507261904449    4.06043679778689
C         3.66391842651285    5.44372988329575    6.34982286663775
H         3.94099868792708    6.24470656718271    5.66848548314751
H         4.27180272877219    5.49886350379684    7.24899768847450
H         2.63166911802248    5.61232948912346    6.64939737489168
C         2.16370388423685   -3.63025413409757    6.32573230186335
H         1.37806752217901   -3.17129580201339    5.74952688572647
C         2.00945040415603   -4.91497852711078    6.80503129373571
H         1.09867996153123   -5.45447520039076    6.59378454313925
C         3.01367917245150   -5.51063805666494    7.55131461583144
H         2.89007090070872   -6.51616215129741    7.92331913654743
C         4.18189151495921   -4.81058552778386    7.81433958976592
H         4.97183995984934   -5.27453403085310    8.38541323501473
C         4.34277702945117   -3.52317216974349    7.34568371224919
H         5.26351380744772   -2.99096444091103    7.53173195945059
C         6.17984639827274    0.83698807121706    7.36088856219081
H         6.37163231976721    1.24589767394978    6.38120038747140
C         6.93715201419213    1.24082033099154    8.44116154641482
H         7.72258026657817    1.96868510233949    8.30065875443046
C         6.68918000841330    0.71665687571444    9.70045171405030
H         7.28075332382623    1.03406510438754   10.54534743353343
C         5.67347331916908   -0.21225431681225    9.87340386217483
H         5.47029152365632   -0.61136796690723   10.85560793177190
C         4.91678097289727   -0.62830660672308    8.79723606573463
H         4.11278339203342   -1.33475500521656    8.93871249575958

