51
CSD_code = REXSAO | q = 1 | S = 0 | Stoichiometry = C26H22AgN2(1+) | MND = 2
Ag        0.00013912942330   -0.00001833984836    0.00019608773181
N        -0.56317055402808    2.04491643026474    0.61601945395898
C        -1.48291573278735    2.66677689816846   -0.03387305515745
C        -1.94864547391993    4.01355267191787    0.29439399069760
C        -2.46835612810563    4.84057296556363   -0.70600040241471
C        -2.88690857276276    6.12151728553100   -0.40240179984117
C        -2.80832791356845    6.59133768441423    0.89968081930359
C        -2.30355844442332    5.77605037167253    1.90135055760615
C        -1.86968025572557    4.49964181418436    1.60298403838759
C        -2.10706513261437    1.96011654140511   -1.16394246253393
C        -1.30896714953337    1.30309976635211   -2.10838027567624
C        -1.90259463166970    0.59518027178469   -3.14228858715457
C        -3.28391626409054    0.52108247224078   -3.23168915778223
C        -4.07631737970704    1.18059360354438   -2.30539978331786
C        -3.49450244692740    1.90445181563007   -1.28023182667063
H        -0.15906285830731    2.59391013365286    1.37234800949002
H        -2.51843287566967    4.48167477849430   -1.72313088691818
H        -3.27815626200831    6.75609103111722   -1.18241400049567
H        -3.14234006081163    7.59000151211579    1.13441063653209
H        -2.24967147535849    6.13639694779220    2.91708546931783
H        -1.50442139317425    3.86320144660679    2.39701727272918
H        -0.23120416770741    1.46217410885524   -2.10747229619478
H        -1.28615611874179    0.12056728934803   -3.89095242758614
H        -3.74307176015169   -0.03495923870366   -4.03427075088111
H        -5.15135622734645    1.13563205685248   -2.38501751934436
H        -4.11131087489824    2.41421186278561   -0.55507300939281
N         0.56332066342088   -2.04480725427542   -0.61610290776547
C         1.48297995191198   -2.66675050011157    0.03382648219490
C         1.94866146279422   -4.01353638889360   -0.29444844552858
C         2.46829283603420   -4.84058105049889    0.70596525974717
C         2.88682299107127   -6.12153307172558    0.40237809950222
C         2.80830112296096   -6.59133603977725   -0.89971322807441
C         2.30360742989364   -5.77602509614179   -1.90140209574703
C         1.86974923110527   -4.49960698189235   -1.60304832217996
H         1.50455943501971   -3.86314721872468   -2.39709886171884
H         2.24977590468832   -6.13635790796261   -2.91714518986984
H         3.14230698730755   -7.59000468282254   -1.13443413205759
H         3.27800080901314   -6.75612465358891    1.18241054897644
H         2.51831029998667   -4.48169857440580    1.72310406822568
C         2.10707979153141   -1.96013912452104    1.16395279264615
C         1.30894479432715   -1.30306800062544    2.10831986075377
C         1.90252607441299   -0.59515781117403    3.14226269623414
C         3.28384780109411   -0.52113527959222    3.23177257703569
C         4.07628381215555   -1.18070692152836    2.30555684828935
C         3.49451220560184   -1.90453764262273    1.28034501914708
H         4.11134923911100   -2.41429941063831    0.55521443420038
H         5.15131827295464   -1.13577434665372    2.38523974371457
H         3.74296870184867    0.03491573019110    4.03436423007124
H         1.28605623333270   -0.12054751320664    3.89090008340834
H         0.23118046443445   -1.46208634356933    2.10731871723367
H         0.15921450860521   -2.59372809698201   -1.37248637282978

