17
CSD_code = REXZEC | q = 0 | S = 0 | Stoichiometry = C6H4Cl2N2PdS2 | MND = 4
C         6.81777596579839    3.41740125661178   -1.65534772618141
H         7.53956062928686    3.41740244120463   -0.85818547282004
C         5.59231884099079    3.41739930868194   -3.73963137726964
H         5.28126140107099    3.41739792932459   -4.76382619142557
C         4.81447069291750    3.41740109985129   -2.61717719619559
C         3.37164333813196    3.41740108365421   -2.47038187095832
C         2.38363790087879    3.41739775675736   -3.41314105279494
H         2.48181577540460    3.41739543944931   -4.47901104790210
C         1.60314667425088    3.41740169438225   -1.12471586326071
H         1.05690251489330    3.41740339419533   -0.19839819180220
N         5.53915478748910    3.41740237680786   -1.45033534460378
N         2.89685470366877    3.41740353453315   -1.18150016707162
Pd        4.37463589886466    3.41741073950754    0.22232251111225
S         7.25599481540425    3.41739958460219   -3.31919045198070
S         0.83874679937941    3.41739814074829   -2.66613576955955
Cl        6.11147309563136    3.41739050497438    1.58018727677422
Cl        2.94720616593841    3.41739371471391    1.90246793593971

