60
CSD_code = REYFAD | q = 1 | S = 0 | Stoichiometry = C20H31MoO6P2(1+) | MND = 11
Mo        4.11640375061333    3.70226586356886   15.85819382663566
P         4.83196100775356    4.13618850153652   13.63828024149971
P         3.98270399258282    1.43710849600060   15.12382443384587
O         4.68208563361260    5.63210684717206   13.12079621145128
O         3.99029442903742    3.38749823764759   12.51246007649347
O         6.37399603148300    3.90218812299475   13.23995296065073
O         3.58794416802208    0.90509985190745   13.67753842742228
O         5.46215431406118    0.85502277847464   15.22456658577101
O         3.06283615949648    0.39803585446301   15.95568879937829
C         2.66196484774344    5.37747423841715   15.49080630000780
C         2.19210162846509    4.23012043325686   14.77857027638378
C         1.80366058616502    3.27768231485673   15.74897023272334
C         2.05747611719143    3.83893481388561   17.00658553494826
C         2.01088840985053    5.33912282431842   16.85040035906683
C         5.30384554931801    2.95149208271094   17.59917507964112
C         6.19778930628817    3.31831115788659   16.54947106121122
C         6.09220094315789    4.72123284194203   16.33466356035925
C         5.27524807701204    5.26314866757972   17.37613242693058
C         4.79101229260779    4.16801335890253   18.16583485341430
C         4.09814358139516    4.42191672932849   19.36589676620778
C         3.90460397514154    5.72244925642712   19.75052713254838
C         4.37398233258627    6.79923755796878   18.96909211935038
C         5.04876843897277    6.58856658104046   17.79503804841956
C         5.39136078919973    6.74494213944081   13.64374949689732
C         4.23042100810429    3.62641377169499   11.11655517700333
C         6.94444995394552    2.61219806176731   13.06401163857095
C         2.27025039725234    0.87597219092766   13.14421919662984
C         5.73372189362101   -0.52068332691926   14.91935904419463
C         3.00384912015824    0.34818202467083   17.36860293842041
H         2.78271610580205    6.32271407166617   14.97451534474406
H         1.95614291470656    4.18473533095091   13.72300739126988
H         1.33343728563069    2.32315615779334   15.54893136767866
H         1.73330863526076    3.36698823652497   17.92705611761967
H         0.97336591244628    5.70416506723808   16.83251842371206
H         2.54059169386669    5.89546188508715   17.62146710072712
H         5.34954300907731    2.00917786106524   18.12771158372976
H         6.98313687358242    2.68409736941603   16.15948953355653
H         6.78053957451177    5.29718813995645   15.73083432056158
H         3.77536703571232    3.60125627259703   19.99082169006410
H         3.40495511779248    5.93822631208581   20.68217667710765
H         4.21699274797437    7.80551787695667   19.32531405141759
H         5.44752917436844    7.41613489040185   17.22589412950677
H         5.06929930583623    7.60928496674531   13.06379629664076
H         6.46604796695481    6.60807504569816   13.52374459211754
H         5.15022102370670    6.90043308149646   14.69645031373039
H         4.04736946145051    2.68610474658430   10.59810309035633
H         5.25473602217931    3.95582936121051   10.94274208405301
H         3.54289864751635    4.39077061250161   10.75527804531415
H         7.71592917074750    2.71339881814133   12.30011235272180
H         6.19241179302812    1.89280219070898   12.73741928163482
H         7.39782972654532    2.26555037479145   13.99265459600413
H         2.32078048682459    0.25234344669941   12.25205455517092
H         1.94580157106519    1.88022024372514   12.86854884150640
H         1.57242938331821    0.43047439208016   13.85362388986367
H         6.58072850758498   -0.81882676322360   15.53581019811242
H         5.99026073289223   -0.62290856121104   13.86545312063962
H         4.87151181419227   -1.14961358426182   15.14223435631610
H         2.09620081508112   -0.19722297392464   17.62643010120818
H         2.96404165912854    1.35264368999568   17.79303811477961
H         3.86905709633890   -0.18182083336328   17.77050563208165

