55
CSD_code = REYFOS | q = 1 | S = 0 | Stoichiometry = C16H28Br4CoN4O2(1+) | MND = 6
Br        7.63921559906412    2.29224150673624    9.10651651837999
Br        5.17792827248773    1.12584011073792    7.17189569040528
Br        6.87121086756922    3.90218211900829   11.90182703406919
Br        3.65056670289404    4.36305387681146   12.67678396010188
Co        0.86853941588030    2.24522443156198    9.27807241285911
O         2.45542427256592    1.82746638949669    8.40014574829663
O         1.87236697375314    3.22453643224406   10.48102857352454
N        -0.79318965407404    2.68722069505247   10.29488238642681
H        -1.04743044777282    3.64681577673560   10.06747459047486
H        -1.59378137601749    2.11068966095748   10.03567485952121
N        -0.08257388184628    1.20291066990746    7.83755167137765
H         0.72172292262508    0.91712190895078    7.27311652280097
H        -0.50558446530926    0.33570759309327    8.16562361126775
C        -0.50248144335223    3.07521395891922    6.20259186920494
C         3.48806290142777    2.30528271033319    9.09171486338004
C        -0.25654156771249    4.20334057990530    7.21816882794748
H        -0.00063619641717    5.11340964353833    6.66417181566769
H        -1.18146035793676    4.40111626768311    7.76701637374775
N         0.81646512238631    3.89178372901845    8.17029882758685
H         0.94579885142233    4.68366229072267    8.80477276679581
H         1.68695246437872    3.82609655691488    7.63559836423748
N         1.15159967366464    0.63708762780842   10.42410420777776
H         0.58584156002329   -0.16930407185283   10.15590834102709
H         2.11940486673967    0.37022344841538   10.22984154064257
C        -0.37359091997396    1.24703458331554   12.32738935572683
C        -0.68117261795330    2.64305227793191   11.76885432513440
H        -1.61601399094159    2.99718173742910   12.21560723287438
H         0.12216920286649    3.32161961203826   12.05785170305640
C         5.83151169942557    2.58862712901388    9.57879153676673
C         1.02583482944586    0.79806714899760   11.88533876624730
H         1.74707151035592    1.54836446377820   12.21148049790486
H         1.26792786288141   -0.14905778023882   12.37884236362641
C         3.16269571154250    3.03692780336196   10.24721429189004
C         4.17346137404847    3.48604541972129   11.08313877631164
C         0.77592731629048    2.74510815965301    5.42725024941854
H         0.57376400778258    1.97466062286241    4.68769921939025
H         1.58224141247249    2.39511966822873    6.06739592667654
H         1.12370884993153    3.62555353464359    4.89336262974866
C        -0.35680871866165    1.35973982343045   13.85570807272263
H        -1.32674497001780    1.67744222103589   14.22702152935181
H         0.38708621515449    2.08209381896336   14.17948446093346
H        -0.12192377735285    0.40034061061952   14.30730760365141
C        -1.04870513839660    1.82811729480844    6.91598517506611
H        -1.94688611939650    2.09948161807952    7.47782288892307
H        -1.34326332399272    1.10363588104826    6.14870002958130
C         4.81621719475603    2.09748902372744    8.75696215628084
C        -1.44173888261141    0.22981661732515   11.91418515698352
H        -1.50421465216409    0.09591084136914   10.83530341948294
H        -2.41731978577690    0.54680480793026   12.27396177815497
H        -1.22686480619447   -0.73692927630160   12.36216517319357
C        -1.57552310724219    3.55665779677847    5.21940006918999
H        -1.78562714132479    2.79044556781412    4.47901271844046
H        -1.23772510437423    4.44434583059942    4.69295910752744
H        -2.50209465398244    3.79779753757437    5.73454532212697
C         5.50987944696051    3.27238169176146   10.74887708609524

