57
CSD_code = REYFAE | q = 1 | S = 0 | Stoichiometry = C30H16Br4CoN4O2(1+) | MND = 6
Br       -3.10625651028334    5.26624230130633   11.12377836600526
Br       -4.91339513707080    5.27899809365494    8.31719149043752
Co        1.61846255599881    5.74436280580819    9.95491192672035
Br       -0.04311329236232    5.86132143653846    5.35672280599009
Br       -3.36775840241074    5.56578548004426    5.40848391902428
O        -0.14481985823247    5.53573123580491   10.46742005023857
O         1.06014191405004    5.81065920769459    8.19464070352169
N         1.29742034596636    7.60351726161895   10.14419434977165
N         2.05186543860647    5.74400724746273   11.80437573627823
N         3.39356613238117    5.88040929858251    9.29213724967515
C        -0.91187114068857    5.54800409945841    9.39076320071071
N         1.77764784278244    3.87514660137956    9.68019689144987
C         0.68414276810470    9.12779276743833   11.93086746574268
C         1.18116821611707    7.89954398698589   11.45388989675726
C         3.71388622579870    4.72919085054911    8.66496698978351
C         5.66819832852373    5.69683524206649    7.66825295414797
H         6.53897538053504    5.63872160774955    7.03361890237832
C        -2.29290423904563    5.43233756683257    9.42529405585243
C         4.19702209662726    6.91699566714540    9.12330693515770
H         3.93763543279936    7.83355002343500    9.63458353768801
C         5.34059506896481    6.86210500384273    8.32471450370443
H         5.95279667690121    7.74387712158228    8.22418097369789
C        -3.03280696361304    5.43858573651941    8.24386890895551
C         2.45338533316262    4.78242047066698   12.61850232979104
H         2.82799195713696    3.87460173828437   12.16650265563603
C         0.94257184020848    8.51452088884409    9.25667993786285
H         1.05287828529307    8.25143518415220    8.21317112489138
C         2.15539015884431    1.36166188818993    8.53037356828152
H         2.28471216313511    0.39171007364026    8.07498246982356
C         1.50140076187840    7.10217154712552   13.74821145421681
C         2.83397037494271    3.63474451499549    8.87849986340092
C        -0.25505435626153    5.68314357317125    8.15342658787491
C         0.93223704438494    2.89053812184036    9.92364984115856
H         0.09733494680207    3.11128497588545   10.57518698210257
C         0.59454162984766    9.31789036189939   13.34173705135959
H         0.20219060727935   10.25558061545654   13.70401428217331
C         1.92485729665546    6.05711297500865   14.58472749168694
H         1.86649251003884    6.16409017867562   15.65688649250692
C         5.06439376650616    3.30596114769422    7.22048105664908
H         5.92427417690513    3.19877007161461    6.57744654647512
C         2.40836407938615    4.90377433870425   14.00834320153802
H         2.74710718317144    4.08142580698849   14.61778030320986
C        -0.99443596947802    5.68376163329276    6.98075187209305
C         0.98445221084977    8.34965353439393   14.20903521303978
H         0.90743653391708    8.50355203927506   15.27429068662166
C         4.22322500829640    2.26142053527768    7.42808320542364
H         4.40169921755671    1.30861656381623    6.95399987848461
C         4.84208792953429    4.57399110361132    7.83570455135523
C         1.59115598069186    6.88468952375495   12.35923373319106
C         1.09135303990544    1.61918810681404    9.36506818553095
H         0.36452050864432    0.85504775762060    9.58941680767178
C         3.07861776243985    2.38866511298430    8.26976061354240
C        -2.38248771053307    5.56104991599718    7.01990153457199
C         0.43771286405299    9.76221887698868    9.63352424372042
H         0.15297345356651   10.46420407372015    8.86628062275658
C         0.29622759640735   10.07400954917901   10.96693579292433
H        -0.10917706561739   11.02497255693136   11.27714800474351

