44
CSD_code = REYFEH | q = 1 | S = 0 | Stoichiometry = C17H22MoO3P(1+) | MND = 12
Mo        4.38257218476185    1.39146795555822    2.78017936723184
P         4.51662334134427    2.75768931169020    0.80293324591669
O         3.96988434521344    4.25239304952598    0.81363873719752
O         6.02593476488480    3.00116113893347    0.38699267484778
O         3.77340150191692    2.24669711505036   -0.53050727172208
C         2.18034007303124    1.85533611487942    3.03103304058987
C         2.25378219758651    1.00413249902227    1.89252731243081
C         2.70001627993708   -0.27236725550421    2.32194551620154
C         2.95246891759545   -0.21233392955807    3.69927357539268
C         2.61149013384649    1.09889954709193    4.14703998473890
C         6.49916829864841    2.03654976306448    3.06267364757206
C         6.24106779952683    1.00176717825400    4.01473262262767
C         5.24943372856477    1.46297060928696    4.90296974549377
C         5.00751440903643    2.85785685439287    4.64130835825037
C         5.80156029883886    3.22733212599225    3.51637263148633
C         5.85350918371496    4.56803648301961    3.09977968404858
C         5.07770661308661    5.48853893880933    3.76033505313375
C         4.25740422131804    5.11517338052219    4.83807921042388
C         4.22176426048436    3.82057724732793    5.29509292495864
C         2.60347404307325    4.64569676663188    0.83745666999382
C         6.35521527075937    3.80929039297387   -0.75696520235695
C         4.08302058364316    0.98298360386170   -1.10987265363530
H         5.02313696812105    0.37744899638479    1.76494281328813
H         1.66759087352603    2.80433434903119    3.07392012048399
H         1.79791271135019    1.20841434262354    0.92911398778980
H         2.75285846738123   -1.16277597532722    1.70918820475914
H         3.18988665799971   -1.05735402921425    4.32965383587764
H         2.47255266626716    1.38473946059345    5.18054465834050
H         7.37691457272451    2.06542333954121    2.42460535540775
H         6.79784292906022    0.08046165099991    4.10588360648046
H         4.95275701341451    0.94986316905991    5.80987544382343
H         6.52184088098011    4.86581310288748    2.30530851516489
H         5.11004518178596    6.52616968662140    3.46725892314774
H         3.67096940417421    5.87249963667075    5.33503957471805
H         3.63774908746058    3.55675458152499    6.16542209938375
H         2.54673713154669    5.59825938362503    0.31129476225381
H         2.27453452386282    4.78900336311260    1.86778640027630
H         1.97030349429431    3.91844535028058    0.33140436342627
H         7.34291497540037    3.48961709759311   -1.08444680017658
H         6.37860389309109    4.86111380521015   -0.47481370964292
H         5.63188030329004    3.66881142823297   -1.56040304289131
H         3.63278180558965    0.98458113725904   -2.10171997518750
H         3.66452987415502    0.17053345216380   -0.51286338013579
H         5.16150413371664    0.84619378029583   -1.19151463141412

