73
CSD_code = REYROE | q = 0 | S = 0 | Stoichiometry = C35H30N4NiO3 | MND = 4
Ni        7.57137860189634    0.55208515803860   11.35948204372116
N         6.90079987005360    1.24548358938747    9.79412630459622
N         7.64305966658629    2.21210837328337   12.19581835447416
N         8.35201168229988   -0.23440748610094   13.01031609772645
N        10.49762460463087    1.56966907968900    7.69388319968275
H        11.42222503175037    1.90373860922787    7.90481468155857
O         7.28602968899141   -2.05137656820643    8.51253432650233
O         7.59921644436447   -1.08605859526798   10.48394322553649
O         8.83462648155195    3.22837264245259   13.89330557846575
C         7.35499060593111   -1.07825229543520    9.22825888302618
C         7.15716816036037    0.36077722501263    8.65654758270189
H         6.32842304744563    0.36518262417071    7.94097395159565
C         6.41817882779920    2.42165601447811    9.57833133239439
C         6.19572746783835    3.38524980939935   10.63206377387445
C         5.34618639473200    4.46952616903455   10.36710236833725
H         4.89099578802846    4.54366020901848    9.39054330433272
C         5.06583504939147    5.41517239862807   11.32217284691591
H         4.40071499673980    6.23558668951651   11.10054696720409
C         5.64889770118631    5.29620579715662   12.57920379417436
H         5.43226899859983    6.02544722479504   13.34578105784764
C         6.50212558562607    4.25675515515069   12.86075176100062
H         6.94975424171966    4.19281011693376   13.83734392640725
C         6.81042060098254    3.27112105375220   11.90771401988309
C         8.49593777951990    2.24982870357724   13.24909435625742
C         9.12418745916919    0.89090525842757   13.57070690315983
H         9.18426780496556    0.80610665780583   14.66529203558205
C        10.53975226108133    0.77167714087907   12.96141306718304
H        10.76086341454075    1.62212798858601   12.31614741556266
H        11.28837674228919    0.75578251163293   13.75257948876339
C        10.51456224590517   -0.55223122568669   12.18708338029149
H        10.28416697060539   -0.38551218738285   11.13158347775998
H        11.45263397405377   -1.09872004465828   12.25735178450195
C         9.35148922086327   -1.29591399188134   12.82368321585248
H         8.95440924176708   -2.08734610039701   12.18880092877440
H         9.63899834532225   -1.70711915031059   13.80107034745166
C         7.26028443456339   -0.68375713518330   13.89426230744820
H         7.61878124753172   -0.74173506336526   14.93162617646524
H         6.96711851742556   -1.68422076542050   13.56308267865412
C         6.07951279765542    0.24599326009720   13.78412560146252
C         5.27171562088933    0.17237966771616   12.64439688290962
H         5.40794369946593   -0.64368516900651   11.93641373221166
C         4.23440396962984    1.07599609029658   12.47099809318840
H         3.60837741267553    1.01432057589365   11.59307676120520
C         3.99245832266793    2.04968293987168   13.42647820419924
H         3.19110930546642    2.75900486064189   13.28470006908880
C         4.77623547671386    2.10970535689590   14.56489474455859
H         4.58287802010587    2.86166073352738   15.31487040396911
C         5.81895692594200    1.21488001487380   14.74174087535179
H         6.43594246422176    1.27836401237859   15.62670429470634
C         8.41726681968696    0.79298872148847    7.98077651810446
C         9.54481076238351    1.22904914092021    8.61609556415920
H         9.71808282722558    1.34993769875227    9.67464517275761
C         9.99673198356661    1.35438159079186    6.44126815981003
C         8.67659620683817    0.86194204478771    6.57947802634884
C         7.92346873972479    0.57928590975724    5.44185456036356
H         6.91792535510887    0.19798925070423    5.53145594213985
C         8.49552613333647    0.79262390024562    4.20887303944986
H         7.93073438022165    0.58143780259951    3.31295301295249
C         9.80182094397617    1.27515920530338    4.08492835039042
H        10.21576013497192    1.42463070006436    3.09864217150099
C        10.56955132342878    1.56091930224134    5.19280722294617
H        11.57957335256678    1.93221116857095    5.09710182625505
C         6.09566241505091    2.83189814451963    8.18434833108173
C         7.03787240409666    3.54534805351795    7.45432073967370
H         7.96591356370056    3.83623326517061    7.92314810949664
C         6.78831588994270    3.87149243938876    6.13336851268774
H         7.53024863706014    4.41368815589829    5.56725514859629
C         5.59667290919962    3.49605449102472    5.53789383217451
H         5.40682862998096    3.74484112947919    4.50487480094016
C         4.64740133848294    2.80102955722759    6.26846582782314
H         3.71352769275164    2.51260726293967    5.80934191311139
C         4.89510827408956    2.46422718787990    7.58725519062706
H         4.15977606907144    1.91563594278713    8.15881141809547

