33
CSD_code = REYROC | q = 0 | S = 0 | Stoichiometry = C11H14NO4S2V | MND = 7
V         4.00080746931937    2.33988162657074    2.21456903292752
S         2.26127959901871    2.75423171506211    0.80338795838818
S         5.64640091793963    1.17031886309519    3.27132670519123
O         4.67266021679405    3.70129378792461    2.16769322449000
O         3.05098830674273    2.71018461853801    3.75067756213692
O         3.51862965971999    2.01617840521627    0.38876845949326
O         5.42008348237689    1.13119904917691    1.77309202488263
N         2.77556937134497    0.34244913641205    2.61865798365771
C         2.23781819754659    1.89548915702183    4.35753573182400
C         2.02864511436824    0.60942643264854    3.82573308331964
C         1.17478949594890   -0.29195309172422    4.43648144435391
C         0.49862605441681    0.05570135847019    5.59806376406065
C         0.70091377856006    1.32826515427692    6.12719557256900
C         1.54713132827055    2.23809619620126    5.53143849922344
C        -0.40632407784164   -0.92545731498751    6.28128041083895
C         1.88519157055198    0.11403601385667    1.48379960002702
C         1.07978044914587    1.36874859079207    1.19715436971105
C         3.72673437944271   -0.74787070431944    2.81581272799078
C         4.75346075334138   -0.35408630592627    3.86265636615073
H         1.02778430865353   -1.27661483557027    4.01180908670399
H         0.17833335778625    1.60828812755760    7.03028570435728
H         1.69777319477621    3.22232394431234    5.94621440354455
H         0.13970212598046   -1.46482014162692    7.05641640146459
H        -0.79727181834686   -1.65455277302511    5.57517336514204
H        -1.24035960650850   -0.41413256904587    6.75581308330399
H         2.49715157087623   -0.12147112018807    0.60404776088964
H         1.20042842651116   -0.73112591777892    1.66594583585064
H         0.43274507567169    1.22570092818350    0.33133874832460
H         0.48448293341987    1.68579364440811    2.05403282417321
H         4.24370514049010   -0.93418017247505    1.86613150415045
H         3.22247561507144   -1.67899326518714    3.12424956540004
H         4.29632811735998   -0.10896877103626    4.82182946362205
H         5.49343549125004   -1.14337976683436    3.99758773183582

