55
CSD_code = REYSIY | q = 0 | S = 0 | Stoichiometry = C16H24B2N8Se4Zn | MND = 4
Zn       10.38687933352554    3.58087075573394    0.25322008557839
Se        8.73817250308649    3.39476350247921    2.15231434940565
Se       12.16189606584712    5.60824901778003    0.54099350982088
Se        9.57101421609709    3.82858157401469   -2.12212065778680
Se       12.05995586808384    1.47459511293125    0.65080774091551
B        11.59393991937390    4.46280700266864    3.80333870591922
H        10.82887416397419    5.16655880177304    3.24299252198220
H        11.76723035158591    4.73605521395719    4.94812427816140
B        12.76082584657668    2.56619074603545   -2.60470209041964
H        13.30600906260872    2.26539766004129   -3.61845950683256
H        11.80305576118842    1.92163837400614   -2.35528255509068
N        11.12217635188880    2.97964919061526    3.72679901995804
N         9.99669623421658    1.14636342745409    3.32887356787741
N        12.98667742223668    4.54165069177675    3.09421534592616
N        14.62723111079781    5.01523960119774    1.72063669760593
N        12.39081407939974    4.07740143146211   -2.68553306893752
N        11.31309422162225    5.98072720315049   -2.72209561807028
N        13.80700170099157    2.40367432440679   -1.45292448645645
N        14.82275574626598    1.82404144647221    0.40058555105625
C        10.04370579735754    2.47905737245132    3.12448975245700
C        11.77260237439985    1.94081934219581    4.31925797667260
H        12.66974651929620    2.08718742642084    4.88374976171031
C        11.08507092275770    0.79761276343812    4.07153691059616
H        11.27920888856776   -0.21560432766630    4.35675904273024
C         9.03371870620005    0.23484610518532    2.77806777132353
H         8.07119359152188    0.73808480084042    2.68545670724780
H         8.93865964391458   -0.63012789653758    3.43149793187223
H         9.35808357645042   -0.09236903337708    1.78597763488687
C        13.28233790501970    5.00097540955396    1.87818052972087
C        14.16512854931318    4.26376103970413    3.71865667361491
H        14.19153285775636    3.90221565444499    4.72542963552207
C        15.18885989267609    4.55676667601839    2.87971899044264
H        16.24944514899044    4.48796129772145    3.00945866131827
C        15.33866652115166    5.51040407965830    0.57772704095387
H        14.80172817937022    5.23828838261412   -0.33270010623005
H        16.33900465003146    5.08143966465134    0.55935330727510
H        15.40923164018633    6.60015891891455    0.61479999979182
C        11.19803187607636    4.65070239453524   -2.52800613963755
C        13.27896638940759    5.06662146722202   -2.97944563306547
H        14.31176104174205    4.85769224219697   -3.16627843771533
C        12.62011023790427    6.25264140492262   -2.99705672520736
H        12.96895285480181    7.24827416382598   -3.17770450364945
C        10.27296870592541    6.95694878673186   -2.55925609473077
H         9.31585896413782    6.51557850445834   -2.83737619938751
H        10.48213014805070    7.81804531340578   -3.19088951562751
H        10.22471041687236    7.27557320584275   -1.51368607696877
C        13.62207256502849    1.94799517685189   -0.21359319059768
C        15.14834881303688    2.56829165226341   -1.62702863815297
H        15.55266470062001    2.90448189954136   -2.55901525478869
C        15.78852893479879    2.20865093949268   -0.48762860392297
H        16.83017166475904    2.18457988325393   -0.24093592160638
C        15.04898394764312    1.28959878369980    1.71242044829810
H        14.26056924243557    1.62915817291426    2.38630155003517
H        16.01790868365530    1.62442102089330    2.07823446521844
H        15.02553548873026    0.19751223373274    1.68844285899633

