48
CSD_code = REYVUN | q = 1 | S = 0 | Stoichiometry = C22H18N4O3Re(1+) | MND = 6
Re       13.26539462073674    7.63136664981832    9.58105246795814
N        14.97637101136163    6.87321208842931   10.82123039367821
C        13.00076000614615    5.84375131429033    8.83682847536922
C        15.07096049005023    9.66107268004988    8.34274322725731
N        14.73143508669603    8.38146091801098    8.19980336276829
O        12.84984780532428    4.79416571865929    8.41235538713785
N        13.76000967700637    9.63835744627625   10.28933423352834
O        11.29749001722196    6.99827225432491   11.88220477364633
N        15.85589278462814   10.08892467796321    7.31520236132110
O        11.01720278342949    8.79909082354151    7.80357347342336
C        14.60293358478523   10.37149982120238    9.52529440033695
C        15.31768217045165    7.93810467258778    7.05052484374496
C        16.13370158719149    7.52397959403670   10.93687893813433
H        16.22701179330915    8.47266369927795   10.42331936096805
C        13.28170250455440   10.18461911604477   11.40341185462317
H        12.60592908960591    9.57456026053911   11.98762832103156
C        14.86608183038628    5.70332565789547   11.46187411214168
H        13.92233157433480    5.18205705430727   11.36684328054114
C        12.01108374218614    7.20753973316243   11.01524774510538
C        14.98349501640872   11.65738018093191    9.89758603076985
H        15.67633423205279   12.22184760369735    9.29948084744736
C        16.03577889834024    9.01055335865276    6.47870284857860
C        11.82683266935852    8.34833275260644    8.46722720804809
C        15.29766530633692    6.68418122827461    6.44111122158390
H        14.74616797983693    5.86901829894672    6.88006125136505
C        15.88592291934875    5.15634752460546   12.21856377721314
H        15.73595113197142    4.20850916628113   12.70912117903717
C        13.60344101192391   11.46016099413743   11.82197480873396
H        13.17860323131009   11.84952299268572   12.73279581398600
C        17.08697533402579    5.83947381432403   12.33015139904146
H        17.90389922103387    5.43958397743784   12.90980587986926
C        16.35632446395395   11.40893116877892    7.03909357870266
H        16.74209951485973   11.42329459522708    6.02204178633686
H        17.17073532060663   11.67386066410168    7.71735891510278
H        15.55599156240767   12.14655088709564    7.10928098070099
C        17.20654189756885    7.05218077374454   11.67248744522194
H        18.11659297274715    7.62844919969357   11.72365280912337
C        14.47872982880673   12.23093598593368   11.05956630832815
C        16.00147726667477    6.54146095880220    5.26848683722252
H        16.00873674225894    5.58747983876087    4.76586369202137
C        16.74499036481312    8.85337908019285    5.29347931414973
H        17.30231446441147    9.66090051407581    4.84601283416398
C        16.71296678399626    7.60818281855795    4.70508920807334
H        17.25111988039921    7.44806527236306    3.78420176045919
C        14.84421759644565   13.61358960495440   11.46828335174476
H        15.67345305018355   13.99929457090032   10.88208572352708
H        15.10652250376334   13.64356883626540   12.52353349317072
H        13.98779667475046   14.27293915755121   11.32914868356007

