35
CSD_code = REYWEY | q = 1 | S = 0 | Stoichiometry = C12H14N6O2Re(1+) | MND = 6
Re        0.59881852362163    2.48373176545570    6.82457493306637
C        -0.41944709977517    3.54143266254371    8.09498692706263
C        -0.05654492753130    3.57663758466362    5.35770132553671
C         3.02663478477269    0.84039430414031    5.56810509719315
H         3.67381687497748    1.05514158422578    6.39706825210424
C         1.33488687918646    0.74459283055502    4.25552329212653
H         0.33812065235084    0.93221715074682    3.90785554643864
C         2.33971803022654    0.05016371809432    3.65183209509842
H         2.37585611061960   -0.46767754140507    2.71681048674011
C         1.70752693440952    1.53327312009506    9.63449486222231
H         1.70243948411319    2.54427592434760    9.99354359130195
C         1.50527626683766   -0.19447458994017    8.38315798041534
H         1.28841375945092   -0.76509959640623    7.50122344966829
C         1.92448386172143   -0.63900190802066    9.60177982109310
H         2.13441591525534   -1.62549402951155    9.95795302303201
C         3.15882926916976    4.28069304625304    7.14783794824118
C         4.28835643684626    5.14795147087708    7.27015646632177
H         4.73021740120232    5.05879424114884    8.26267252179218
H         3.96314113939438    6.17774852880074    7.11866848801764
H         5.03877294549558    4.90083824178615    6.51920061714908
C        -1.68982139403263    0.35037842824729    6.51485616849692
C        -2.73823248714736   -0.61085589528241    6.38187735711812
H        -3.70055320218369   -0.10291018035883    6.45138856101621
H        -2.67117244696681   -1.35436963272041    7.17614296409842
H        -2.67016892006367   -1.11051611637035    5.41541393768277
N         1.77867023244230    1.23030934381895    5.44969830614922
N         3.40594448549707    0.11891901932745    4.49808454123238
H         4.31435961975546   -0.28727637847752    4.33935864001881
N         1.37579357129613    1.16146628899665    8.41865178416303
N         2.04901469582435    0.47041707427225   10.38224852374624
H         2.32708341156432    0.48520514124015   11.35087156853715
N         2.21828714179828    3.62035619342504    7.04640006175154
N        -0.87336612922718    1.15748057823199    6.61818098548023
O        -1.00648536584623    4.15484206328165    8.86373581627035
O        -0.43468645505712    4.20361556391596    4.47844405961687

