65
CSD_code = REYWAW | q = 0 | S = 0 | Stoichiometry = C27H33O4V | MND = 4
V         5.36668280132092    5.83672956261959    3.27740403584672
O         6.76763502905976    6.00610722578516    4.16154656991279
O         4.34898160279103    7.04730034064043    3.68433492538250
O         4.69540007745143    4.39586624253678    3.64605889357018
O         5.71968368984831    5.90205516176538    1.79424067600065
C         8.07529765155319    6.02186745980561    3.93108112809524
C         8.70001799781927    7.19422565449594    3.47557737928998
C        10.06722444184396    7.18024422092558    3.25653218767647
H        10.55014179984871    8.08250101953544    2.90757213374932
C        10.82979270422448    6.03844764311437    3.46659992469926
C        10.19124321532573    4.88208219227780    3.89320145255809
H        10.76844627204724    3.98043668496919    4.04474042998265
C         8.82629574496930    4.85181938124506    4.12545872198606
C         7.86386376064142    8.41528217851782    3.23298339703593
H         8.43747005644231    9.17841825228624    2.71235210357181
H         6.98702635730700    8.14933463005653    2.62987554743823
H         7.51248330116563    8.82752972424661    4.18137749403376
C        12.30584900504019    6.04624858135751    3.20164583673255
H        12.73081556600467    7.02653359142825    3.40469333096348
H        12.81444401640914    5.30678039671022    3.81574907945521
H        12.49834642817457    5.80634432534283    2.15537086962116
C         8.11527458115408    3.60826116342193    4.57061073973208
H         7.23246171095273    3.44389364512965    3.94366254610613
H         8.76899281888554    2.74174986874940    4.50536120805649
H         7.77565655411101    3.71305304757928    5.60345938315059
C         3.42774335705612    7.98227704014974    3.50874668570332
C         3.47296614213832    9.16963077854426    4.25436455119933
C         2.48460642273445   10.12407118371751    4.06259227419889
H         2.52836933714366   11.03757369378707    4.63907809655917
C         1.45408805946540    9.93253963499131    3.15689089567602
C         1.42079550969716    8.74655007389706    2.43017656402422
H         0.61997559441004    8.58505096312746    1.72216279859260
C         2.38472767587574    7.76764086113373    2.58587037199051
C         4.58596510363336    9.39924327318498    5.23552680862075
H         5.28350923605201   10.14088886193132    4.84413444703178
H         4.19262888050768    9.77284348850226    6.17983237010026
H         5.13111270601399    8.47204784218368    5.41879263798189
C         0.39867233656816   10.97602474804437    2.94584585719520
H        -0.59466020394416   10.53563989509099    3.01303401222552
H         0.48143516578465   11.76833375894794    3.68520064002795
H         0.50010440952996   11.41783942174449    1.95478188669413
C         2.34895105907997    6.48779744404689    1.80475728340896
H         2.20921636622426    5.63064638413905    2.47207331707655
H         1.53549568702354    6.50119797535789    1.08325582162981
H         3.29635134850518    6.34526791867303    1.27416999787174
C         3.92524816330709    3.32185102202589    3.58800383346117
C         2.91644870107282    3.15603598083786    4.55365452944914
C         2.10365589083372    2.03668764412767    4.49409052398420
H         1.32856969899701    1.91273672506469    5.23747077557868
C         2.26223556521016    1.07790918657396    3.50325491084240
C         3.25767153979332    1.26259068528037    2.55094201054943
H         3.38424924956991    0.52514320926290    1.77074729275679
C         4.09314039542118    2.36620922261747    2.56990911578556
C         5.17263576095075    2.55741350365537    1.54748941463972
H         6.12982945432047    2.20442941374991    1.93818408429024
H         4.94750607828694    1.99628455119228    0.64369654267995
H         5.28177576705565    3.61700043599917    1.30046961537532
C         2.75594511873717    4.20697034178780    5.61190739657328
H         2.57622675168883    5.18444956815354    5.15483744764857
H         1.92505401520759    3.97050381009746    6.27201808979181
H         3.66867240294858    4.28477220152664    6.20742324337310
C         1.37888675701159   -0.13180548173581    3.44403289124120
H         1.97841564977999   -1.04080414612191    3.43408629630867
H         0.70747836794386   -0.16642516160541    4.29794446771454
H         0.78067329398395   -0.11907014821530    2.53346020549398

