31
CSD_code = REYXUP | q = 0 | S = 0 | Stoichiometry = C16H9ClCrO4 | MND = 9
Cr        7.64780303078577    2.21118829410238    0.96940777386688
Cl        9.07466282816727    0.30630181841653    3.62862438990538
C         9.25715159360394    1.16974789060931    2.13968751166954
C         9.56104219020230    2.54648325333713    2.13306932973433
C         9.62489707553422    3.20593071917365    0.87907178555641
C         9.51704298090838    2.50009013356625   -0.32030907211734
C         9.21238642051504    1.12894276583810   -0.28285547807271
C         9.11061077405800    0.45397583980620    0.94036084620695
C         9.72697937395543    3.38791726307867    3.34522478798611
C        10.54585018204908    2.84558236588044    4.45180716429513
C        11.62260887991923    1.99373947101631    4.21015373760606
C        12.39315446206994    1.54077204056907    5.26358161113058
C        12.09271646192162    1.92439885918851    6.56158050301902
C        11.02990010110169    2.77935482799670    6.80624098687492
C        10.26543004641870    3.24877523390180    5.75544244790330
C         6.74956166993969    3.80491498976519    1.07873372129843
C         6.37494073991284    1.72205760619696    2.18690824539577
C         6.31069668197480    1.80435595563129   -0.20656517824200
O         9.23744997896854    4.50231610201387    3.38011841126891
O         6.11926457550249    4.76187860929150    1.14856030928280
O         5.53559764971905    1.44930348074734    2.92501507488392
O         5.42465189582196    1.57090507432528   -0.90524964112172
H         9.89115929032168    4.25730106954490    0.87912358300628
H         9.67871684155641    2.99911269765308   -1.26714256618739
H         9.15345887861143    0.56453979674454   -1.20596505356184
H         8.94878060289093   -0.61513547996088    0.97371493945335
H        11.86599107796428    1.70102592470407    3.19784536727032
H        13.22995442978331    0.88478656440319    5.07422428994321
H        12.69221314926772    1.55924173740478    7.38221918407922
H        10.80055542735816    3.08208012788356    7.81687781859003
H         9.43637070919543    3.91991496716977    5.92209316907641

