51
CSD_code = REYXID | q = 0 | S = 0 | Stoichiometry = C19H21N3O7W | MND = 6
C         1.69715192788295   -0.51093339308459   28.65389245352328
C         1.96224428594621   -2.47598863142836   30.51901171567807
C         2.89116762146484    0.05674922626991   31.07853844320654
C         0.70479879866750   -0.95265737187301   32.48990769764126
C        -1.29723477077976   -2.47185398029784   29.67378851243552
H        -0.56140280585574   -3.26550622901324   29.71363551270115
C        -2.60599973573803   -2.74284255207331   29.31706948088511
H        -2.90166601255695   -3.75111570990774   29.07527119872737
C        -3.52619634179375   -1.69948034663169   29.27688477517628
H        -4.55387237571934   -1.88009436501303   29.00179966548704
C        -3.09215112815823   -0.42979780760629   29.59753858346369
H        -3.76262179655850    0.41535394037809   29.57926110262966
C        -1.75307117121336   -0.23658887933160   29.94850543167108
C        -1.21696204107135    1.05585618302690   30.29175081005716
H        -1.87359221329853    1.92415420230415   30.28795954895220
C         0.58800280418680    2.43198926363436   30.85765486216994
H         1.23558123143053    2.34741967935415   31.73555495319831
H        -0.20093671850406    3.17342461762219   31.04358636284021
C         1.41886593578428    2.89839978169847   29.65691172148313
H         1.98226991838280    3.79256910401566   29.93189672269080
H         2.12495259829204    2.11515779851210   29.37172267709405
C         0.50701427505792    3.24808251488191   28.48657340473650
C         0.44237325670934    3.64045688594436   26.07881734582311
H        -0.60744920535519    3.79628555455763   26.35984823037159
C         0.96913229085844    4.93219980730393   25.41321362021138
H         0.38904277767074    5.06028070826269   24.49417311436457
C         2.44639091513390    4.80497042928963   25.04660716424949
H         2.76603734669650    5.68404710645991   24.49236570449821
H         2.61712297144766    3.93090893953997   24.42207261367560
H         3.06493780948778    4.72702212969239   25.93831840432492
C         0.73725286267922    6.13090702104414   26.32683981619942
H        -0.31716810836523    6.23075877373029   26.57041159374382
H         1.06807684345501    7.04387798630733   25.83840335592940
H         1.29305439256670    6.01586320674675   27.25490723967482
C         0.47969870038153    2.50232544560671   25.06571961466176
C         1.32490608729818    0.36807191372533   24.60393294640454
H         0.33059136704385   -0.00347536862666   24.35047647707846
H         1.89530119172613   -0.38673707852545   25.13742604621972
H         1.83550100053738    0.66171732208450   23.68471944035253
N        -0.86472134105198   -1.25400568555570   29.98483619916227
N         0.03212482316617    1.13761111895739   30.57300285158389
N         1.14006961304003    3.31530582269196   27.29754607486703
H         2.09671133917639    3.01148004852929   27.21572182577161
O         2.14350741135127   -0.47975321083402   27.59888715225573
O         2.42885481393080   -3.52483150360571   30.48272688103051
O         3.91064770005326    0.50534105066127   31.36545429277691
O         0.52251775593480   -1.14981213360950   33.60043111127465
O        -0.67684116241426    3.48557359144006   28.61917335538495
O        -0.08637980685754    2.53355577814299   24.00550619760601
O         1.22400996424624    1.48026267491273   25.48614722823440
W         1.13695410360371   -0.68100538030947   30.55729846582097

