34
CSD_code = REYYEZ | q = 0 | S = 0 | Stoichiometry = C11H16ClN4ORh | MND = 4
Rh        1.09288156429952    3.04273598655932    0.48121062294335
Cl        2.11724294888902    4.67071198469083    1.67946717538092
O        -0.25147397129572    0.90438462856766   -1.09345971543825
N         3.07298449571896    1.34004254937595    2.00656461546737
N         3.90557811751021    1.91868793906467    0.11882487335240
N        -1.45451484105510    4.56713466652690    1.16179657741315
N        -0.47289145988740    5.42507719789833   -0.53876274695694
C         2.77476540900819    1.96610519255652    0.85097779797250
C         2.15532458936128    1.19068845767167    3.10025249732080
C         4.37025919614388    0.90388682028023    1.99763735585297
C         4.89687276145039    1.26976546682933    0.80593090953429
C         4.05255291763986    2.50471167542077   -1.18317853970713
C         0.27158711032019    1.73754946922680   -0.47875314370789
C        -0.42428942836020    4.38149344401166    0.31252633793845
C        -1.75558523606735    3.70553735013511    2.26964463446696
C        -2.13950890821201    5.70993452612269    0.84492769805288
C        -1.51996576328326    6.25072556072708   -0.22979676923728
C         0.47223922295374    5.64528935396585   -1.59649506513960
H         2.57716513355475    1.61703858788291    4.01161621375350
H         1.24197012243805    1.73882468564418    2.83645892499817
H         1.91840146169673    0.13763757385008    3.26873033309061
H         4.80844356546489    0.38328169926245    2.82451388182972
H         5.87829337017584    1.12713760472301    0.40200581232515
H         4.77578871978042    3.32228990527796   -1.15560508639303
H         3.07423912354104    2.89973546677056   -1.47963620363979
H         4.38201458456558    1.75742667698653   -1.90773782938994
H        -2.80031117488652    3.39083177673194    2.23961268434872
H        -1.10248948753676    2.82869562430720    2.19387929499844
H        -1.56018669712137    4.21560704402226    3.21541716406418
H        -2.99248719502821    6.04211018885472    1.40059414320841
H        -1.73447335006566    7.14118540894927   -0.78459759860671
H         1.24655330341941    4.87299240348251   -1.50816842199536
H         0.93438738205368    6.62835769844405   -1.49493590943930
H        -0.01186758709623    5.57188538508003   -2.57306251876105

