77
CSD_code = REYZIE | q = 0 | S = 0 | Stoichiometry = C39H31N3OP2Pt | MND = 4
Pt        3.97325863998394    2.17820467255957    3.81802680601808
H         4.30333676309577    1.29611631079911    5.04879726010000
P         6.17568205612925    2.70869752193006    3.45610708257124
P         1.72263021393972    1.75839839583774    3.97896375463206
O         3.51476245394658    2.93887217912050    1.06291593432595
N         3.57322904402162    3.30379106313217    2.25481218421793
N         2.76700294047477    6.52811718362636    1.16530252686489
N         3.61476585522464    4.95706023745466    5.17934333233496
C         3.36111745724387    4.54921987165074    2.66224735208160
C         3.03500102439950    5.64087576377016    1.84468994775052
C         3.50592039777618    4.71949189637049    4.05337929843098
C         7.26224164706023    2.68927753486017    4.91128898960621
C         8.57486189225091    2.23748997468737    4.89317075759420
H         9.00100644216189    1.83582763240254    3.98512186705003
C         9.33200055476683    2.28780350703131    6.05109765367427
H        10.35205278574781    1.93233169624540    6.03897350871226
C         8.78695208415407    2.78938440365499    7.22123526673880
H         9.38466859058286    2.82775994163258    8.11996482733197
C         7.47326549221218    3.23150847127823    7.24310625062982
H         7.04492869812461    3.61361764995508    8.15768965657685
C         6.70890986201478    3.17601088221309    6.09334009333322
H         5.67348009938516    3.49736909961705    6.09795624606349
C         6.48615329467713    4.34937972125698    2.73177034543319
C         6.30555341283528    4.52727930024733    1.36053822747108
H         6.07596160628195    3.67763470422635    0.73038628352535
C         6.39547305605727    5.79118119660440    0.80952705210057
H         6.24264680462687    5.92411010727713   -0.25076587349603
C         6.65918049429731    6.88480114217642    1.61874333002405
H         6.71508891076933    7.87255055752093    1.18709831086425
C         6.83863895482560    6.71186409830881    2.98111991089901
H         7.03822262696003    7.56380928863963    3.61400408221223
C         6.74826406817765    5.45031819535367    3.54141508501801
H         6.87237081123854    5.31798527926123    4.60713448549278
C         6.88489089050872    1.56483039768009    2.24598563084337
C         6.15650453692829    0.41144221276821    1.97562945930924
H         5.21287575909209    0.25716820944666    2.49560764961147
C         6.62431913612478   -0.50407145066820    1.05142629307927
H         6.05476652861552   -1.39581872131571    0.83587527515080
C         7.82158229501460   -0.26793471839439    0.39536263875238
H         8.18960682457673   -0.97966506574751   -0.32882043454782
C         8.54410985818816    0.88706918128339    0.65342023628779
H         9.47031956072457    1.07286850579239    0.12930276266001
C         8.07849643317869    1.80896901669077    1.57294147963883
H         8.62571010537370    2.72437187254889    1.75596373605776
C         0.67385223099966    3.01813952261430    3.19196253319013
C         0.51136761275033    3.00511987737740    1.80721940356674
H         0.91961160789433    2.18980766725326    1.22415964740897
C        -0.14403465326874    4.04723699791846    1.17968067256097
H        -0.25799146687749    4.03800853272083    0.10621787100017
C        -0.63171814338475    5.11044928950692    1.92302484854575
H        -1.12854662871250    5.93053201432744    1.42752858206993
C        -0.46790200739055    5.12894708003504    3.29827302983058
H        -0.83859623105617    5.96164491456472    3.87733805553908
C         0.18730116068229    4.09021746396578    3.93475720032762
H         0.33436291937895    4.11199690540834    5.00620599572385
C         1.05643642806383    1.67241369687229    5.66727157682630
C         1.73554642061207    2.37210194167988    6.65969446771502
H         2.64512523009778    2.90292246731676    6.40402531312948
C         1.24951852176455    2.38039474616960    7.95403681446638
H         1.77463521228638    2.92754703985824    8.72251549522555
C         0.09168525351274    1.68452568698643    8.26265649700340
H        -0.28686939233094    1.68682066382506    9.27420637935420
C        -0.58049521152094    0.98042842503339    7.27655513650368
H        -1.48003593705805    0.43405077538725    7.52011504390526
C        -0.10409551142005    0.97394045747925    5.97776187265096
H        -0.62718826615435    0.42060611751497    5.21067415387597
C         1.23055836182245    0.19652302958328    3.20077460536258
C         2.19523304258974   -0.80370631305280    3.13569596276083
H         3.18015300653501   -0.60350867859555    3.54513104957368
C         1.89187086561693   -2.02535448485201    2.56416434585254
H         2.64305832915739   -2.79950867351022    2.51123773668915
C         0.62296479584839   -2.25271546880476    2.05603143587946
H         0.38399297145039   -3.20442238379733    1.60491677835890
C        -0.34083172115499   -1.25884178680528    2.11990630311902
H        -1.32854647009674   -1.43765743175064    1.72053375682531
C        -0.04278880911976   -0.03389441401285    2.68933141673739
H        -0.79164448530437    0.74606540126180    2.72479945547062

