81
CSD_code = REYZOK | q = 0 | S = 0 | Stoichiometry = C42H31N5P2Pt | MND = 4
Pt        5.68916017121944    3.71791101760644    4.92312178150819
H         5.72218071537617    5.23364397617309    4.94268283155933
P         6.99669390191349    3.56587473903315    6.80912954286047
P         4.38967337937256    3.67811714961823    3.03335617401772
N         5.65660252000625    1.73655330048501    4.88824932653762
N         3.64430137615601   -1.93370824576305    4.43587157879537
N         7.13573745993620   -1.30623706092756    4.78526444764093
N         9.89577980877894   -3.23752269006664    4.90865208625856
N         5.84377410518137   -4.56500000407742    4.40468761982647
C         5.80725800084538    0.58792997186534    4.80560246463026
C         4.67745987123468   -1.44208616601643    4.55580981655206
C         5.91398891308701   -0.78120486175886    4.71296083261911
C         8.79156963668381   -2.93128038582096    4.81690927558659
C         6.54395717634422   -3.66408168403656    4.54507043509599
C         7.43088555681733   -2.57437254010821    4.71440505083783
C         7.80137307920604    1.95307540325876    7.02137087506312
C         8.83621459827283    1.64761884462469    6.13785309712001
H         9.14102590433287    2.38881987191855    5.40723699409056
C         9.45947430868137    0.41749509028550    6.19871535435583
H        10.25779578726171    0.17545665447896    5.51405230385450
C         9.04686716419459   -0.51952473348615    7.13412076200118
H         9.53312614911526   -1.48190320342028    7.17575430771991
C         8.00191710171133   -0.22884519193762    7.99422935006498
H         7.66797609621586   -0.96678601702444    8.70913434495920
C         7.37177774415461    1.00303960370620    7.93855805862829
H         6.54789589438834    1.22332550885018    8.60357787979692
C         5.82490718634570    3.70431981378478    8.18773829670225
C         4.46809320191834    3.73473153730432    7.88080842825889
H         4.16083528359944    3.69545021845872    6.83127410790734
C         3.53092516716954    3.82537004492685    8.89344177404239
H         2.47749102499868    3.84825610277762    8.65710101547495
C         3.94746976318176    3.88886920651596   10.21361345598897
H         3.21717903596725    3.95904791869750   11.00586856876680
C         5.29917876268908    3.86695086231152   10.52194101177582
H         5.61860394499094    3.92106994333082   11.55219677482881
C         6.24076795925312    3.77631143161779    9.51334444398368
H         7.29674821750294    3.76239911136421    9.74699424416987
C         8.28583587566471    4.76120558425845    7.28255724589078
C         9.46620426630029    4.37452482648486    7.90798875999400
H         9.67118259178370    3.32774458506083    8.08387714480378
C        10.38304578608815    5.33384338551086    8.30087243486510
H        11.30000409688844    5.03006843978030    8.78404361308434
C        10.12741198801058    6.67664889179664    8.07846878071295
H        10.84662651206293    7.42062809506628    8.38684236554976
C         8.94997873975238    7.06472243491374    7.45866756260223
H         8.74952031194048    8.11139710603685    7.28455917476527
C         8.03250705118243    6.11119104010223    7.06025242664724
H         7.11309896699372    6.40038386356168    6.56943444399247
C         3.22259638264672    4.98851473715467    2.55121341194107
C         3.67638803242904    6.30262907231234    2.62207968540763
H         4.67409502863317    6.49484919568891    2.99408133339504
C         2.85705058227940    7.34157708694748    2.22543665964461
H         3.21208076301093    8.35989427895158    2.28008441975427
C         1.57819194809840    7.07570993679837    1.76028795882974
H         0.93562435170380    7.88735187384659    1.45336031814778
C         1.12337507884713    5.76977437967698    1.69070268633584
H         0.12751439106458    5.56198122487006    1.32788912452775
C         1.94124670978018    4.72383116564461    2.08262220268091
H         1.58313672616462    3.70553675599514    2.02408626252408
C         5.57734597181145    3.70444361750518    1.66348534379099
C         6.92828787271767    3.58892565717498    1.97663942791378
H         7.22670978990600    3.51104765413934    3.02603342113277
C         7.87473513856971    3.58577152715135    0.96856621242120
H         8.92321673168191    3.49353336828655    1.20967694928956
C         7.47401475941996    3.70250846111044   -0.35286807607454
H         8.21158847628455    3.69830499022213   -1.14142820666473
C         6.12956579118393    3.83058988242541   -0.66714758726771
H         5.82317592954253    3.92820246580330   -1.69817702415468
C         5.17852888788621    3.83381051718904    0.33668101474194
H         4.12831533901644    3.93894289195801    0.09929945270350
C         3.43874682222731    2.14559629622906    2.83904983796968
C         3.67184425119640    1.21059336066527    1.83923255551359
H         4.43603874255204    1.38957216685417    1.09550644504405
C         2.92477975651790    0.04534104794879    1.80521549141371
H         3.10852608475398   -0.68443255037176    1.03107395867760
C         1.95818422627099   -0.19585095266615    2.76663328468444
H         1.39157345893922   -1.11266582294684    2.74231585672293
C         1.73609998270570    0.72855996579591    3.77620020131524
H         0.99485115279605    0.53158347960451    4.53585454216487
C         2.47768257254343    1.89234247947348    3.81693247596477
H         2.32570611208439    2.62158699735497    4.60591769268265

