67
CSD_code = REZCOQ | q = 0 | S = 0 | Stoichiometry = C18H43B2MoNP2 | MND = 7
Mo        4.27568871422786   11.74031179812862    2.20370920817806
P         6.14639015659030   12.56352092448626    3.49364698749414
P         2.48324535400813   10.58686767674892    1.05364932783636
N         3.44448897528272   13.26278870494291    2.33900201976808
C         7.52834458636862   13.53730260044770    2.75287558410973
C         5.65534325209144   13.69275497384910    4.84479432950278
C         7.09685089889595   11.30449001618131    4.41978346608122
C         2.29032239836149   10.55831040176596   -0.78321137153301
C         0.80833229462597   11.13748769964200    1.53563998270841
C         2.37564458302572    8.79305411472222    1.40025619535205
C         2.91058947927078   14.48726455047747    2.41883791487078
C         1.92607702066191   14.79729041625796    3.39000528192337
C         1.40702748591000   16.07951677190672    3.43626884557196
C         1.82926593933327   17.05791998982582    2.55517232046992
C         2.79875824950107   16.76465425575904    1.60996598423344
C         3.35450406102611   15.50265079768236    1.52841974598463
C         1.45864306683571   13.74275405928069    4.36300726020542
C        -0.05317367213015   13.52422970125399    4.26092120611332
C         1.83331216486882   14.12756182331768    5.79656285388362
C         4.40080111181941   15.14472621218744    0.50056427328989
C         3.70932583880314   14.50575163644768   -0.70895350999584
C         5.26807202914283   16.32329738540083    0.06496089242860
B         3.45207456402913   10.16331208213111    4.73573941071429
B         5.79967255452296   10.50214708263638    0.91311462149838
H         8.29058884894874   13.76324647348271    3.49903158373813
H         7.13140631203682   14.46794382160911    2.34767930479698
H         7.97344150639760   12.96411351908237    1.94011585448650
H         6.52163947328111   14.03538207261629    5.41236018683855
H         4.97226283118886   13.14857118126418    5.49568860713494
H         5.13034590062958   14.54739572188847    4.41624170653373
H         7.83477769241757   11.77352394634106    5.07206974602860
H         7.59946593175458   10.64313387600887    3.71334084030424
H         6.39336934464503   10.71879934284789    5.01185670537052
H         1.45899530773361    9.91694643387670   -1.07715909057945
H         3.21119823766598   10.18832139012339   -1.23254129352213
H         2.11062468251389   11.57035847662766   -1.14468602927144
H         0.03835339571276   10.57448368250215    1.00636955418782
H         0.71223763701165   12.19982509874793    1.30984522137057
H         0.70371301134096   10.99498936907580    2.60994621522148
H         1.47742174953924    8.36256325158757    0.95527410079773
H         2.36045042733301    8.65586355247680    2.48145291630249
H         3.25876697084918    8.29742175591825    0.99511622825740
H         0.65584959196119   16.32124255551257    4.17347296131737
H         1.40629066357102   18.05059155889753    2.60362591634956
H         3.12013360834999   17.53873278409722    0.93037501171489
H         1.96999734819055   12.80404337454209    4.11718683683983
H        -0.35030014596653   13.34109902244353    3.23103217147879
H        -0.59664393074189   14.39516919262509    4.62126080281715
H        -0.34476456205377   12.66793606459425    4.86480824547830
H         2.89773813847581   14.33454233007466    5.87016194410697
H         1.59343985593180   13.31014821969509    6.47217415445080
H         1.28868872727561   15.01392136822981    6.11636414989420
H         5.05428887850113   14.38022609258838    0.95066046252049
H         3.15014636382117   13.62624127854197   -0.38629473471321
H         4.44435740592198   14.19842473730670   -1.44978171274366
H         3.02053365317966   15.21277956889656   -1.16844179823979
H         5.66054238962647   16.85504756629583    0.92945882615568
H         4.70327539606267   17.02253464983677   -0.54740596004908
H         6.10585552922337   15.96225217058579   -0.52827285723579
H         6.97861916312875   10.61253196247366    1.02410351550933
H         3.82052770451492   10.81950069349887    5.64899247069330
H         3.72740714389412   11.02958061596017    3.58836923800721
H         2.27899934038024   10.01777676708783    4.66817762078654
H         5.23737141978289   11.69921627808372    0.76205583301633
H         4.09524508299120    9.18868939841133    4.52147444123962
H         5.47250863744692    9.78572353659076    0.02185398514104
H         5.22653222848074   10.19039957174088    2.02915328672515

