35
CSD_code = REZDEI | q = 0 | S = 0 | Stoichiometry = C10H12N6O6Zn | MND = 6
Zn        1.61324123323326    4.89171056385282   12.22569387717563
H         3.81841614698359    5.97991095256126   12.94884664562247
O         1.98966106868451    4.70818824670121   10.25164680033154
N         4.19528553750921    2.86416338074621    7.24693595606610
C         2.92197069274643    3.93418886562802   10.57920220112718
O         3.18805599484829    3.74328983041634   11.79302475917669
H         2.67347524655407    6.73929148081953   13.64686121787624
N         5.45987122216489    1.75683540073287    8.94094373788125
C         3.71953796061567    3.25980237909653    9.54182859945849
N         5.88877586223396    1.41832823393540    6.71885300577278
H         6.59276409475745    0.75917735808825    6.99536272219982
H         5.66580496286395    1.57111459336941    5.75270444525022
O         3.01649951894579    6.48773101050228   12.78192232791067
C         3.49083594011400    3.46557072486291    8.17997109351192
H         2.71241272135604    4.13830650601624    7.84586939458114
C         5.15755334371554    2.02950918314315    7.66384151856720
C         4.74517472203636    2.36687932754317    9.86019050441659
H         4.98370759534376    2.14518485493146   10.89178765972186
H        -0.58965545962829    5.97844956678861   11.49646571021669
O         1.23704443195332    4.70797341819636   14.19987620043035
N        -0.96953042456154    2.86496005438043   17.20428006462841
C         0.30556090063281    3.93307969845517   13.87212492321914
O         0.04037606706196    3.74154840747183   12.65818435666468
H         0.55611498359033    6.74530493440810   10.80802557923607
N        -2.23154023664616    1.75461666309936   15.51034485638716
C        -0.49205294580303    3.25854039837413   14.90936598383983
N        -2.66230734531142    1.41827513050156   17.73241091487360
H        -3.36569133873819    0.75847008754039   17.45593034040072
H        -2.44069486437367    1.57264013554643   18.69862221223068
O         0.21022155273434    6.48741711685288   11.66993585404471
C        -0.26477378696575    3.46596537022299   16.27121257704085
H         0.51271752912481    4.13977904390148   16.60530151014570
C        -1.93069154281169    2.02901794941510   16.78744642481265
C        -1.51656917011504    2.36428814092063   14.59107175356853
H        -1.75397221485527    2.14119099097239   13.55951427161419

