83
CSD_code = REZDUV | q = 0 | S = 0 | Stoichiometry = C41H34Cl2N3P2Re | MND = 6
Re        1.77924750610705    1.26619914562232    3.66017743432317
Cl        1.42964153546081   -0.12490192541691    1.87819770559931
Cl        4.07288469294293    0.99797220003636    3.99554894655179
P         2.35716934519069    2.98466677706039    2.06145750525221
P         1.37096890194397   -0.66216740399385    5.05700508887492
N        -0.42920300687220    1.74414187247396    3.53899396356597
N         1.32630442401381    2.40488714245721    5.00027228460737
N         0.26722661010054    2.92361304973630    5.38097176687858
C        -0.40097513708862   -0.78158927886159    5.42544276083790
C        -0.77575514334291    2.56167737421605    4.56998883490427
C         2.57018822649652    4.64134683026373    2.77849072515475
C         3.90343568344510    2.74960632617736    1.13060369102205
C         3.17351919615895    4.72526507659726    4.02992724395688
H         3.46038607016176    3.81538322909658    4.54069407292787
C         2.20730553332480    5.80494982152998    2.10773883196406
H         1.75153566591853    5.74623445076791    1.12883859717835
C         4.77414984810114    3.80751428002948    0.89082554847295
H         4.54510660608555    4.79533636889753    1.26380235337364
C        -0.11423368817313    3.80936533296432    1.16852454916158
H        -0.21969845394426    4.19236397303311    2.17578820564486
C        -2.09000369979807    2.99161650082685    4.75872335328532
H        -2.31453025384076    3.62924727080221    5.59678758779803
C         1.08680512145503    3.21380947869579    0.78566532671855
C        -2.67977873466779    1.76090064806724    2.79352675737244
H        -3.40540771646779    1.43248518054830    2.06783798068859
C         2.15380350713317   -0.69665684241829    6.69976152076361
C        -1.26661573906845   -1.20089858016842    4.41673457424195
H        -0.85751526278165   -1.55014795611086    3.47797624056035
C         3.06781923623262   -2.38134187184967    3.74831245100685
H         3.68615163126203   -1.49930809782095    3.64383904114287
C         1.83545640191368   -2.28497375437234    4.38795759478461
C         6.25294554787969    2.32861362310086   -0.28930316676830
H         7.16883309415728    2.16620573277004   -0.83858023631406
C         5.94218247027441    3.59313889896059    0.18152214996507
H         6.61567713994104    4.41834753780606    0.00091687587397
C         4.22297879682936    1.47835444761910    0.66063720038894
H         3.55977433438029    0.64773192740313    0.85798118788455
C         1.04085638501204   -3.41757233059417    4.53212217729121
H         0.08350397523331   -3.35232748864204    5.03136935134209
C        -1.36255085388883    1.36737715703093    2.67701220935258
H        -1.02728347545187    0.73155541031812    1.86754616582265
C         5.39157558457785    1.27175508581191   -0.04787481562914
H         5.63317630716345    0.28183954847173   -0.40634667638344
C        -1.15577718447079    3.91365107545142    0.26793289081420
H        -2.08343845230901    4.37769926536667    0.57043463524736
C         1.47559986877696   -4.63022381411793    4.02754990521347
H         0.85521750810439   -5.50819722222081    4.13819070070537
C        -1.01175224909429    3.41555979756114   -1.01792554524006
H        -1.82793542392778    3.49289846309758   -1.72110789295349
C         3.39962757766027    5.95964351005438    4.60994677199508
H         3.86629581621155    6.02017313318030    5.58169478910707
C        -3.04797925396497    2.58072238038447    3.85904054973171
H        -4.07464727083137    2.89393717249874    3.97518912878723
C         0.17683861272623    2.81683689414268   -1.39965268712038
H         0.28824687273934    2.42602574074085   -2.40052903914594
C         1.22489042682511    2.71076589628473   -0.50189801484656
H         2.14942088222866    2.23653530216930   -0.79909776026026
C         2.43286261345048    7.03688492492157    2.69535193757065
H         2.14751836620980    7.93883068048040    2.17328452089900
C        -2.63315344609151   -1.15899001849309    4.61443289078216
H        -3.30057852154811   -1.49130234181387    3.83268879759946
C         3.32844992877479   -0.74560167113619    9.20991496409441
H         3.78917898607602   -0.76759381243768   10.18669831400106
C         2.71660013702191   -1.88440163044064    8.70934084531980
H         2.69997566791935   -2.79182319261206    9.29556166324977
C         3.02597298852076    7.11617970587258    3.94501561112119
H         3.19876293853762    8.08121376236151    4.39837980411385
C         2.13100282556830   -1.86406704337497    7.45777896529779
H         1.65884057011053   -2.75377094819318    7.06428839862661
C        -0.92068007264103   -0.28735112478475    6.61687267038975
H        -0.25008602522256    0.06473725857652    7.38802511353965
C         2.76681487821929    0.44391751835801    7.20380028590205
H         2.78486164435911    1.34580249333400    6.60699200653064
C        -2.29022671367288   -0.24258978838146    6.80598710584675
H        -2.69067281131736    0.14046550870095    7.73305750794485
C        -3.14654577311455   -0.68004554873375    5.80934531568963
H        -4.21528414302073   -0.64243996813275    5.96041919812898
C         3.35216326413522    0.41633078757174    8.45753664261433
H         3.82997943739097    1.30342639678426    8.84583057906770
C         2.69745995040185   -4.72088830086149    3.38151280018675
H         3.02781822522594   -5.66973304038140    2.98446595632646
C         3.49396379613245   -3.59583075290593    3.24459747557464
H         4.44773534428964   -3.66440361771092    2.74233723608683

