85
CSD_code = REZHOT | q = 0 | S = 0 | Stoichiometry = C44H37ClP2Pd | MND = 5
Pd        2.19499353456869    4.07660108717487    0.05643031129673
Cl        1.95077866812299    5.56139585885189    1.95658505686641
P         4.36411530427742    4.81954474665331   -0.26832751415996
P         1.36012962764207    4.12885880695699   -2.09392476500533
C         4.80294777829658    6.58235354103110   -0.40187147723070
C         5.97828765989571    7.06248051427341    0.16893460903461
C         6.29691931502933    8.40556068148023    0.09883246524523
C         5.43308038992985    9.28547931893203   -0.53059885258997
C         4.26374440397612    8.81473856614218   -1.10091924287787
C         3.93481522502840    7.46658224214428   -1.05372700851427
C         2.67890316626129    6.96279153682802   -1.70761707135447
C         2.97915823722790    6.22450132142977   -2.99074397506652
C         3.81161154785513    6.84386009437758   -3.91602034314874
C         4.10942305625975    6.25470972334795   -5.12997891037322
C         3.55566800775511    5.02756343454559   -5.44833406919172
C         2.71901655192506    4.39898628152218   -4.54660337613606
C         2.42960115206241    4.97525330354974   -3.31256233457300
C         5.13460436379046    4.06785580270241   -1.73509699103422
C         5.96391333896087    4.73469647989101   -2.62512348153368
C         6.47590250553863    4.06156222404411   -3.72102587256475
C         6.17957776932334    2.72423616335958   -3.92187993520945
C         5.36462495777654    2.05006555088426   -3.02484020121512
C         4.83399057185606    2.72307715237910   -1.94153691341342
C         5.45549932170227    4.22313073585662    1.06635179788948
C         5.17489096822367    4.66651980484005    2.35875906581289
C         5.92632971940127    4.21448869156614    3.42633906994934
C         6.96062438441268    3.31528349364302    3.21792146658326
C         7.24164160484815    2.87258740739773    1.93649209052670
C         6.49471884023417    3.32134902428096    0.86098369628317
C        -0.07297975967897    5.26237121114836   -2.14088169609284
C        -0.64676283634937    5.61591128144021   -3.35957717673467
C        -1.71387163711181    6.49360564257878   -3.38819355970463
C        -2.20805381123432    7.02693081142512   -2.20707960493675
C        -1.63067759893019    6.68692893212177   -0.99510205890623
C        -0.56233363437474    5.80752399140753   -0.95934206908632
C         0.73512084419928    2.64126363916127   -2.92894598262297
C         1.64796246178936    1.65261302015710   -3.29739541467107
C         1.20676759273793    0.45680036328389   -3.83022382182010
C        -0.15155356771229    0.22036186637786   -3.97517966764325
C        -1.06439835212775    1.18286753836864   -3.57766091864535
C        -0.62765720674604    2.38616671360297   -3.05169258189406
C         1.65399430814467    1.89804494953103    0.84330346861796
C         2.68021738867233    2.05636098216403    1.80888848118338
C         3.76721622251710    1.19894094221523    1.82770373312911
C         3.86403239220770    0.16575311491057    0.90742274299324
C         2.85380064259725   -0.02160560762298   -0.02602389604322
C         1.76732791380626    0.82993291158659   -0.06599842536450
C         0.61125077952030    2.90832188252123    0.72762362022815
H         6.64541830770288    6.37720822821947    0.67278986235666
H         7.21352562332683    8.76542091140397    0.54226541501920
H         5.66879206250831   10.33852290130339   -0.57614042072387
H         3.58930526500197    9.50678678533954   -1.58631588047545
H         2.14596524801098    6.31855385068693   -0.99130852783653
H         2.02333119962581    7.80769033100772   -1.94131456602594
H         4.23269181711919    7.80923432041785   -3.67305168719288
H         4.76338218911558    6.75579571696183   -5.82804332010411
H         3.76931416597349    4.56061414433229   -6.39832212602699
H         2.27807007720348    3.44935041846666   -4.81116721930240
H         6.20384439658048    5.77589060646215   -2.46270689713932
H         7.11355734462133    4.58354434500437   -4.41942402821571
H         6.58543731257248    2.20392579308803   -4.77694486438808
H         5.14472704991859    1.00231453024579   -3.17499191838610
H         4.18509620779380    2.21535668227056   -1.22953202630258
H         4.35248392478354    5.35195888281977    2.51889142531083
H         5.70034938417458    4.55928932022021    4.42464842359925
H         7.54461549868724    2.95713126093883    4.05343110198245
H         8.04689571962007    2.17112485353482    1.77032469856196
H         6.72376601432215    2.96760460957508   -0.13434569194275
H        -0.25324620872225    5.19952889088693   -4.27763406782357
H        -2.16102373373942    6.76572048064549   -4.33335944819226
H        -3.04179712671025    7.71305757240333   -2.23517746274278
H        -2.00834881955381    7.10914269175954   -0.07598376517183
H        -0.09545634706514    5.54760444808880   -0.00941247062734
H         2.70457901382074    1.83040139039573   -3.15415930908967
H         1.92159201389742   -0.29875165657683   -4.12258872818542
H        -0.49727940568324   -0.71707291895250   -4.38487992815444
H        -2.12393972602975    0.99471567601320   -3.67258934650814
H        -1.34729805963464    3.12780225218321   -2.73445753968053
H         2.57534017942587    2.81526476941107    2.58080470241104
H         4.54304415275056    1.33709976131993    2.56790741964785
H         4.71732511343380   -0.49624035618523    0.92407586594888
H         2.91627842201269   -0.83835974818036   -0.73192776413034
H         0.97697861821866    0.66762786417817   -0.78754556750693
H        -0.21221910932214    2.64257161683168    0.05986694363458
H         0.25948810012797    3.32456099701537    1.67447624712473

