87
CSD_code = REZHUC | q = 1 | S = 0 | Stoichiometry = C33H48AuN4Se(1+) | MND = 2
Au        2.36426232200566    1.42438153932957    2.66429669797821
Se        3.86351042211284   -0.01031977521305    1.44999524710822
N         4.13821731857601   -2.77421109500680    1.87787474670220
N         2.47624619550615   -1.90228713063781    3.00903853951554
H         1.92787365748698   -1.18218482813831    3.45315078360261
N         0.87254750949662    3.86670956746950    3.73194974094198
N         0.33108521938536    2.07048942307041    4.76145968421634
C         3.47886688332938   -1.65951231637829    2.15669296591397
C         3.53768504044062   -3.91987397854840    2.54788533341151
H         4.28971071217500   -4.45194945136133    3.13350608429486
H         3.11827789931104   -4.60720369007247    1.80756987518231
C         2.44857847593297   -3.28947973486617    3.43174754676656
H         1.46047218534958   -3.72151387849425    3.25682358213274
H         2.68104094471791   -3.36995221275120    4.49813136014639
C         5.19339856485498   -2.90630548566372    0.88745984889376
H         5.58206726878791   -1.89270810495059    0.73004514785762
C         6.31836612136316   -3.79062657819711    1.41054075009910
H         6.64905029588831   -3.45481619723106    2.39051970373851
H         7.16238058040538   -3.73211213453863    0.72992219664734
H         6.00660321179457   -4.83020929694724    1.47296111134140
C         4.62599257507295   -3.42497356474655   -0.43147099140699
H         4.25244599116284   -4.44066110560860   -0.32542849086718
H         5.40612602916812   -3.42538169655363   -1.18650111274215
H         3.81772423158251   -2.78178955423762   -0.77324966237882
C         1.10432647612933    2.54977936561691    3.77353358931717
C         1.49940987520022    4.75678969160124    2.81339982331470
C         0.90743803608202    4.96233718862873    1.56624560518735
C         1.54374310536807    5.82283435040452    0.68145975681447
H         1.11353697443029    6.00147914467244   -0.29086788203134
C         2.72458769301961    6.44983684127106    1.02978942528456
H         3.20568689427818    7.11529758573893    0.32969466407546
C         3.29610267397816    6.22582678685893    2.26784808273837
H         4.22263035202657    6.71496592184116    2.52165258056843
C         2.69364396660890    5.37636646863813    3.18601670637313
C         3.33848177126895    5.10953696045130    4.52602434450816
H         2.64469466163421    4.53972171976435    5.15376968547789
C         3.66348692771275    6.40959816680904    5.26335065735954
H         4.43567682327929    6.97249299216224    4.74772222286461
H         4.02102771484339    6.18662100528104    6.26571403147996
H         2.77746508704072    7.03537987604571    5.34438148275580
C         4.59937618991414    4.26329259501956    4.32967626738588
H         4.35707921489864    3.32799385751123    3.82495406350352
H         5.04998499036199    4.03321755185306    5.29208064325990
H         5.32858507910439    4.79678076930244    3.72632389935827
C        -0.36743648421554    4.25711251802595    1.16675252573844
H        -0.75543772433404    3.69642947865629    2.02399981676990
C        -0.07650313836760    3.25566350381615    0.04608558955141
H         0.28069363622887    3.76617252175372   -0.84378878661371
H        -0.98005502832893    2.70815704618520   -0.21076732448280
H         0.68576146522355    2.54333243849602    0.36083992753863
C        -1.44487228747174    5.25622375092157    0.74137043554143
H        -2.37661963214324    4.73327399683760    0.53976410869000
H        -1.15354223961402    5.78821431358762   -0.15934476098436
H        -1.62206608469794    5.98576801730793    1.52859259781694
C        -0.04238734447218    4.21988146402688    4.68638946239447
H        -0.36512031556435    5.23141058101332    4.81806328556505
C        -0.38629066822127    3.08280264885410    5.33973266894128
H        -1.06567881270111    2.91291447293921    6.14858848627392
C         0.29115710371970    0.69447966312825    5.11772396273431
C         1.22318144390000    0.20590953091434    6.03690492546489
C         1.17331374693857   -1.14536162996810    6.35768777678882
H         1.87030666572905   -1.54720722168398    7.07585880873826
C         0.23538156860081   -1.97806626498471    5.77672159827669
H         0.20133051582912   -3.02236595049274    6.04802360047905
C        -0.66461509005234   -1.47808829269991    4.85401060025368
H        -1.38758703436368   -2.13906364411417    4.40377404286995
C        -0.65688400909140   -0.13238672558436    4.50869382209182
C        -1.62193423755190    0.39851849139939    3.47567683777341
H        -1.54771921024489    1.48970731782225    3.44053716467817
C        -3.06869494677423    0.04404196570073    3.82318403233565
H        -3.24036055175584   -1.02680342336613    3.76110905865982
H        -3.74453217385778    0.53459933786164    3.12741020735580
H        -3.31252561384081    0.37427198290090    4.83051837846031
C        -1.24278365138709   -0.14198592582596    2.09348496619861
H        -0.22858879920127    0.15812603068114    1.82906758787959
H        -1.92287422052750    0.25065704492447    1.34249312431763
H        -1.30053442817769   -1.22751533720163    2.07392631677005
C         2.26737043184377    1.09912894827427    6.66283215076554
H         2.13354460841729    2.12186600806070    6.29748696646541
C         2.11980200521369    1.12179686922262    8.18561105610397
H         1.11589105168571    1.43145704825738    8.46735039105380
H         2.82978964725912    1.82335867961439    8.61592007108933
H         2.30842342834626    0.14120562876396    8.61353199230233
C         3.67056911372078    0.64163834033738    6.25587733855174
H         4.41474590293243    1.31007533234959    6.68046932040160
H         3.77850100816146    0.65522561856257    5.17093620038210
H         3.87338622027631   -0.36463373448886    6.61320932932663

