59
CSD_code = REZLIT | q = 1 | S = 0 | Stoichiometry = C24H27ClN2O4Rh(1+) | MND = 8
Rh        6.46938632937957    3.58589804334644   10.32346708488964
Cl        5.42409234121633    1.53212252821527   10.40032657357653
C         6.79148612952663    5.50488947706392    9.26514311327408
C         5.88003175374200    4.66664891582385    8.51661162964817
C         4.70875351047955    4.47235265323711    9.31074808380595
C         4.92728311669188    5.09560324698050   10.58414049131633
C         6.19873409707885    5.77870519737512   10.53079421439988
C         8.03881666776157    6.12283503806650    8.72690064282201
H         7.77679967408990    7.03249744518587    8.18415687994623
H         8.55385178189795    5.45755192819443    8.03743433356646
H         8.72589055638326    6.39342614564065    9.52458134970377
C         5.97955922775593    4.33794314750649    7.06026804112441
H         5.67870528100156    3.31025932582521    6.86270415695562
H         6.98449978373841    4.49894173619746    6.67827890698896
H         5.30420298838673    4.99133893327166    6.50607777286881
C         3.43879180491142    3.83827907061310    8.86722388079599
H         2.76369560692787    4.62042198283134    8.51515411128805
H         2.95241488064069    3.31313714669649    9.68540541948020
H         3.60691163569158    3.13727721753720    8.05454058530712
C         3.86295039226849    5.26982384194838   11.62152161261288
H         3.42553305547210    4.31287574109244   11.90280971103908
H         3.06459762812361    5.88755967239751   11.20836907386816
H         4.24280302184447    5.76618328709210   12.51078573311231
C         6.71974406784733    6.73137574776503   11.55446661807853
H         7.80426740972058    6.79953649714637   11.52142071416858
H         6.42134497285644    6.44883127339583   12.56140585995808
H         6.31343843558211    7.72330464488634   11.34994734773993
N         8.12331527688798    2.46711057494754    9.84389325766346
N         7.15741867952404    3.04903575868060   12.16931980079501
C         8.49674853192915    2.18114324907021    8.59823715045399
H         7.97537540633191    2.69248616925497    7.80064857036575
C         9.49110691242912    1.26762003231407    8.31133926071852
H         9.78113841643267    1.04832965429044    7.29574989717958
C        10.12487861397817    0.61179270805834    9.36510931274664
C         9.72866939790455    0.89804522368770   10.66278893125226
H        10.19744627168527    0.38665888869388   11.48629617204195
C         8.71745708308238    1.83226377352570   10.87358023355611
C         8.18323562297648    2.17530563793913   12.19022052238605
C         8.64965181787952    1.63487081530754   13.38626297616036
H         9.47086569676187    0.93853693017082   13.40166155926233
C         8.03651923527473    1.99609147453050   14.57629904462628
C         6.96095922797356    2.88164455542817   14.53364656195177
H         6.46398215642508    3.16023893703296   15.44963689110686
C         6.55553685674583    3.37734930522227   13.31114545446010
H         5.71228092611308    4.05124733075438   13.24470941984092
C        11.20053848377655   -0.38501575712877    9.04661422417600
O        11.57663162116577   -0.59883884334568    7.92568549646214
O        11.66867581196550   -0.98115427321421   10.13754028027616
C        12.68866313915262   -1.95573440819298    9.92773992865883
H        12.31034434045334   -2.76785251832053    9.30499048679195
H        12.96372701249661   -2.32348516925712   10.91220600826124
H        13.54724545415846   -1.50164663048324    9.43051949143907
C         8.47507461051593    1.46556376679614   15.90977894041291
O         7.97004817960734    1.81134534091823   16.94378286118918
O         9.46879102948776    0.59114238786933   15.79861717807681
C         9.94465426178978    0.02892137669342   17.02002758776668
H        10.33175211977143    0.81479366268637   17.67057307705645
H        10.73271405943238   -0.66704682735617   16.74687298094551
H         9.13486759483594   -0.48838301209378   17.53682249944117

