33
CSD_code = REZQES | q = -1 | S = 0 | Stoichiometry = C10H12CoN2O8(1-) | MND = 6
Co       -0.90699293390455    4.77326793222216   12.02670664691089
O        -2.38280569652669    5.23139218618608   10.92642614230433
O        -4.56474422436389    4.87902411520260   10.66655540323888
O        -0.94265781267198    3.00539857890222   11.41206355534426
O        -1.68802602708746    0.97185695820690   11.02299260604904
O         0.47328508419411    4.41552001302010   13.27679381428962
O         2.08267928569685    5.39954703836630   14.45706624243951
O         0.34106506950992    5.19215341508710   10.69527634413705
O         1.95609333648434    6.25258761218832    9.64236714468072
N        -2.35326262140092    4.42972061425063   13.32998384302614
N        -0.76809568614242    6.57892272495870   12.82156228176937
C        -3.44293751381588    3.84402762461774   12.53562122590539
C        -3.50023912325198    4.70959385268130   11.23014298597163
C        -3.17202608882971    2.38571730885826   12.21199322243379
C        -1.82529559729833    2.09656864749489   11.47237174061724
C         0.66914121465976    6.77212061001709   13.06429641195169
C         1.16606103680516    5.40953233055101   13.65754829530472
C         1.40960098238933    7.10909011745337   11.78244397023705
C         1.23249740412816    6.09010401752568   10.60977406808419
C        -2.75931534183350    5.71235788773998   13.91891999443936
C        -1.52296118639314    6.58997683704395   14.08121277316386
H        -2.05546112339362    3.77974816059858   14.05946890264679
H        -1.12118467993027    7.29666107569145   12.18645864334059
H        -4.40433401358727    3.93081149569189   13.06855114665716
H        -3.15706033332894    1.78494974366181   13.12838495229004
H        -3.97267144684973    2.00262223438341   11.57741364272536
H         0.83533272204115    7.57062134543795   13.80636468446889
H         1.08949195773274    8.08373467841952   11.39739842697628
H         2.47879461633053    7.17099461132828   11.99153662810134
H        -3.27199111353183    5.57389715694164   14.87956864809262
H        -3.45264910059542    6.19453116187854   13.22312036318259
H        -0.88066366623606    6.16486383636979   14.85854951270330
H        -1.80086737899846    7.60908407702271   14.37936573651632

