55
CSD_code = REZRAQ | q = 0 | S = 0 | Stoichiometry = C20H22N4NiO8 | MND = 6
Ni       11.17405662020996    0.00082579865313    7.88254296458628
O         1.17428341939603    1.27021336871616    5.65908438161070
N         7.26925499979192    1.43197749744358    7.35881870179303
O         2.13272701982732    0.38013939078928    3.81903515533588
C         3.51032663064638    1.03680327309794    5.60322686091461
C         5.99631646963395    1.30514118402750    6.76289684674202
C         4.86071710502444    1.68257905118208    7.47046870494141
H         4.95003033592698    2.06153269770881    8.47787431841466
C         5.88789132110645    0.79681516714956    5.47290129631907
H         6.77540998280953    0.52504950208964    4.92073489300818
C         4.63928067121769    0.66168088554897    4.89513273328119
H         4.52459290521876    0.27080289805791    3.89608277526762
C         3.61520369381339    1.54922219122167    6.88474982185552
H         2.71713768167327    1.83276995562330    7.41108441778005
C         2.07439456402270    0.87399570726734    4.93485062146614
N         9.35215857283673    0.98209358250906    7.91148608683954
C         8.30586874879214    0.58335070839163    7.21958283869988
H         8.26554764886784   -0.30566788944943    6.62100009366446
C         8.97776345372269    2.14276748576777    8.52043346706007
H         9.64170131785450    2.70287092184136    9.15003744332476
C         7.68584959263254    2.42959572493216    8.19030587310113
H         7.06113739695000    3.25582977935363    8.45654035951915
O        12.11169677699787    1.88258830562346    6.86927803906833
H        13.01151880248334    1.88325187962531    7.20732425875279
H        11.64216238901154    2.58832712230325    7.32381718483253
O        10.77008407930569   -0.62416849220338    5.69614969264513
H        11.64214837963532   -0.91184224484417    5.40962498370826
H        10.67049148386431    0.27749748197256    5.37219042773879
O        21.17244123063122   -1.27580335165756   10.11081605657156
N        15.07840828502817   -1.43095806580609    8.40740205451191
O        20.21436024586924   -0.37937152358996   11.94799089063496
C        18.83684343376363   -1.03745824132642   10.16425304798965
C        16.35121609139484   -1.30441997592401    9.00368785688235
C        17.48692758913321   -1.68133798364415    8.29603551462260
H        17.39773902494995   -2.05941728615502    7.28828572288314
C        16.45929153535241   -0.79710089395811   10.29409536661719
H        15.57159924203111   -0.52560493476737   10.84611762938244
C        17.70776602925064   -0.66266774548333   10.87233223636323
H        17.82226379130141   -0.27253578813712   11.87169234821014
C        18.73229391766694   -1.54866595763858    8.88221808101906
H        19.63047100667467   -1.83198222268934    8.35595257398034
C        20.27259885001659   -0.87586348979148   10.83334532061751
N        12.99590637096167   -0.98059426226736    7.85371957898273
C        14.04220734230485   -0.58167301211845    8.54553430439758
H        14.08269948328991    0.30783025356185    9.14339588484190
C        13.37001389312159   -2.14187943933607    7.24573990652064
H        12.70609035360064   -2.70218494356698    6.61629570573086
C        14.66162922890976   -2.42911875790863    7.57667645966947
H        15.28608350396332   -3.25587488338794    7.31144486455733
O        10.23627383703232   -1.88254673630981    8.89282875196878
H         9.33865665995616   -1.88525781409719    8.54899139007195
H        10.71001691902253   -2.58763837904167    8.44162836346883
O        11.57633499490773    0.62329755761878   10.06967501638140
H        10.70413581823694    0.91131200453075   10.35552974691094
H        11.67517925837567   -0.27852706150317   10.39346008393756

