86
CSD_code = REZZEC | q = 0 | S = 0 | Stoichiometry = C42H42OTi | MND = 8
Ti        1.32287581757921    0.62435622027860    2.59824658134563
O         0.92282649392674   -1.03443332811071    2.50540018605183
C         1.54120076390864    0.55168812822014    4.93419455833550
C         2.83090413476790    0.77698537141069    4.39121841365398
C         2.81660742580289    2.03282213071739    3.72501326942531
C         1.51398171832323    2.58356458217657    3.85526131053730
C         0.72393733834934    1.66696395457261    4.60208664824528
C         1.16500315632763   -0.56798803095888    5.86398446248594
C         4.05576209508558   -0.05878569001116    4.62807203882103
C         4.03632220365327    2.76355805871389    3.23914807114190
C         1.13210551324310    3.98767314702409    3.47681615314456
C        -0.66335686259612    1.91040954957849    5.12627047465078
C         0.76111134078892   -2.25622608625105    2.97033566164065
C        -0.46534588108421   -2.64363187158597    3.55712431999089
C        -0.59307551625281   -3.91207594260051    4.12849933725777
C         0.48806011637108   -4.78322981870910    4.12514346421586
C         1.68653985185762   -4.43961059585694    3.51379366323557
C         1.83016918685567   -3.17952549091577    2.92906733784482
C         2.60678745818001    0.85302694175989    0.98654449655516
C        -0.23074216239399    1.50578572171570    1.54059679254286
C        -1.59822244156913   -1.70027159564014    3.56164993577494
C        -2.01188195252481   -1.09998484567145    2.37473470155383
C        -3.11764266493613   -0.26730680514380    2.35966056563893
C        -3.81743343232087   -0.01384235400200    3.52721268001327
C        -3.40704890465809   -0.59848964030423    4.71423459162030
C        -2.30754012373844   -1.43640979518829    4.73257676686536
C        -1.87280540133529   -4.37930148662072    4.69419417257408
C        -3.04635248576611   -4.32006234530886    3.94780504256256
C        -4.23674505350938   -4.78165372784165    4.47644551431978
C        -4.27379468551767   -5.30866471042180    5.75685842781616
C        -3.10984296292496   -5.38141541422532    6.50275510305028
C        -1.91648969895807   -4.92493621923439    5.97344053138125
C         2.76459589002965   -5.44516769994500    3.45707158704826
C         3.19169521175108   -6.07802210327126    4.62035022627349
C         4.19064656066251   -7.03337152832073    4.57518171447353
C         4.76873186722570   -7.37706461307622    3.36518233642176
C         4.33863719157486   -6.76375176493493    2.20014526540923
C         3.34452291001785   -5.80478748919693    2.24393922168247
C         3.08699681827100   -2.80080581884486    2.25671432192830
C         4.31600146054739   -2.94301955787853    2.89657264948981
C         5.49098736744194   -2.64616683075580    2.23199125138424
C         5.45660953835237   -2.21316568953447    0.91671667401662
C         4.23945433635954   -2.06902313741805    0.27223793500045
C         3.05983825897821   -2.35308995190328    0.93802015020080
H         0.37382659061737   -5.77068296899059    4.54772350339794
H         1.54336254722584   -0.36146793478390    6.86951584322614
H         1.58294684356493   -1.52237748362384    5.53833425248395
H         0.08360249276951   -0.67202644855915    5.92725567355827
H         4.72041480336099    0.44238217848679    5.33706800707296
H         4.61372030591803   -0.22352423418069    3.70443745748730
H         3.78894446407115   -1.02836315383944    5.04406236859109
H         3.78808734596907    3.48026239478904    2.45762282797933
H         4.78282910033326    2.07208063418115    2.85105742668108
H         4.48983793553426    3.31646986192393    4.06688509420675
H         1.44532105542705    4.68431336377410    4.25943460683247
H         0.05533354927024    4.08759907698678    3.35071885139625
H         1.61537850690892    4.29050524695359    2.54759959594660
H        -1.28305648858309    1.01612862291829    5.05258900683588
H        -1.15532323665421    2.71182364392371    4.57770198013469
H        -0.61901352849021    2.20498075337911    6.17828755048590
H        -1.48391513396345   -1.32095023329772    1.45531359731105
H        -3.44095553023614    0.17835541488821    1.42990955058636
H        -4.68170680063263    0.63383306784539    3.51350247082232
H        -3.94779803883004   -0.40374210216347    5.62928951326704
H        -1.99949852140529   -1.89783999779537    5.66019586649934
H        -3.01899254457448   -3.91883919332817    2.94553363794717
H        -5.14032091820426   -4.73031460491220    3.88664215710831
H        -5.20606580713961   -5.66393009214837    6.17065733168217
H        -3.13197434732037   -5.79443514204517    7.50100161742836
H        -1.01005181364854   -4.97398943253940    6.56027933265601
H         2.74652691799559   -5.80488131993909    5.56682288251991
H         4.51934616872132   -7.51108099416735    5.48695491347356
H         5.54918656898207   -8.12287213972829    3.32972991881160
H         4.77992072296220   -7.03461607937757    1.25208339292462
H         3.00487801864116   -5.33570999449609    1.33253489942287
H         4.34932958411306   -3.29289764038678    3.91829233580367
H         6.43772221476055   -2.75881049688339    2.74056493584304
H         6.37630545324951   -1.99144419997889    0.39506973776644
H         4.20975022754126   -1.73854459871147   -0.75614377427186
H         2.10930152996346   -2.26009711507948    0.42705068943199
H         3.60133717653100    0.45539005286099    1.21845576383243
H         2.72164102522681    1.91360679233495    0.73072058887568
H         2.24918667054874    0.34227567062893    0.08385660667013
H        -0.53498673540282    0.92174144856138    0.66258442855044
H         0.06284327332568    2.49826158022094    1.17662658632136
H        -1.11461344459680    1.63167596981295    2.17566836476107

