69
CSD_code = REZZII | q = 0 | S = 0 | Stoichiometry = C33H22N6O7Zn | MND = 5
Zn       -0.37144072786483    5.41058172816723   14.79788339586577
O         9.05098868954387    6.86805611718626    5.60352851786111
O         1.10016283724816    3.45821775224606   17.60968711259013
O         1.28023516526939    4.01387803983753   15.55891515761724
O        -0.35551461908506    4.72728019342752   16.70753409054135
O        -3.51547692874326    7.06607533814298   13.68873581529408
O        -1.40423032553374    6.91953356634694   13.42868461702992
O        -2.37232933065647    5.73505822374125   14.89918165262034
N         1.03625942243978    5.65272268286507   13.37754018224858
N         0.61898700568325    7.15354868318386   15.43193760961824
N        -0.72099939067825    3.77454229437406   13.52557414831648
N         7.02918272079703    6.56723793962149    7.55312069021856
N         0.69146655135017    4.04559522997777   16.64633714948005
N        -2.45555312457626    6.59301515054546   13.99315509675585
C         0.29074152188737    7.87478418135734   16.48799609568625
H        -0.46850598101801    7.44863543687650   17.12936579784470
C         0.88356446361609    9.09855895632579   16.76658836208249
H         0.58891549667822    9.66091993441366   17.63768558656303
C         1.85247769143902    9.57264842752564   15.89818433726455
H         2.33442129965501   10.52264511918661   16.07515959760271
C         2.19746869859857    8.81058688954418   14.79333175243279
H         2.94506518485711    9.16585623973356   14.10299961646784
C         1.55609825376550    7.59306076964680   14.58630436795593
C         1.83681966791426    6.70210144581079   13.44738364145239
C         2.84014646443447    6.88998164575441   12.50347564274547
H         3.49604279379052    7.74417008671224   12.54272626224316
C         2.98257247225622    5.95743577729217   11.47455567531009
C         2.11234160973054    4.86661907927469   11.43511053983021
H         2.21832537773616    4.12908506412278   10.65654571448440
C         1.14146882976678    4.74458754824231   12.42281040349168
C         0.16347207945821    3.64833818552073   12.53137620666529
C         0.13878598003258    2.54523639542067   11.68330048137829
H         0.85756461763159    2.44422090637546   10.88658221898485
C        -0.82106956347470    1.56565196587635   11.88224389320346
H        -0.85507304457208    0.69938314384411   11.23844037152715
C        -1.73073968078206    1.71482604446796   12.91564715069555
H        -2.49227431582912    0.97520557470669   13.10243190119378
C        -1.63938209144470    2.84527558817359   13.71589827087580
H        -2.32289592460957    3.02252613581405   14.53489671392439
C         4.02831428527835    6.11816938665969   10.45822551828104
C         5.30119258898667    6.56372065758975   10.81359594998356
H         5.52466463199350    6.77590616674805   11.84838802368309
C         6.28896163148432    6.70858801204243    9.86197857371196
H         7.27184224591619    7.05433434827441   10.14540614395746
C         6.02433520982790    6.41882210603162    8.52465365057568
C         4.75248415464093    5.97906391043838    8.16226446567332
H         4.54491163363379    5.75046470132627    7.12756885543766
C         3.77051322469870    5.82699033887061    9.11895866688370
H         2.78525885830021    5.49972921343464    8.82229662796203
C         8.21601821447811    5.82985415366201    7.63718501874123
C         8.43296918162920    4.87972489090955    8.62718224431355
H         7.66550742005161    4.68662360345865    9.36026305908768
C         9.62024108056391    4.16533999730887    8.67937421406665
H         9.76260373221996    3.43823671131060    9.46381088323566
C        10.60520883357018    4.37866310572407    7.73655778338218
H        11.53291294456311    3.83037363650453    7.77617145266898
C        10.38909599328805    5.29616731602785    6.71966460902402
H        11.12711807230909    5.47076905651964    5.95332678032998
C         9.20541899056635    6.00878737061383    6.66141827358458
C         6.86544256250688    7.46077421008058    6.48829950997771
C         5.75012801908312    8.28049849399665    6.37011125788597
H         4.97728495224020    8.24311580643486    7.12179007050163
C         5.62173643320051    9.15714823835708    5.30347282437203
H         4.74140696806376    9.77734883592358    5.23518903667513
C         6.61047328012309    9.23876486092256    4.34415998832400
H         6.51299292262810    9.91461091225480    3.50956533154405
C         7.74712934065750    8.45426628203444    4.46732291531439
H         8.54923823984801    8.50917456099046    3.74897584502243
C         7.88130450694013    7.58068563386479    5.53086658783274

