68
CSD_code = RHCABO | q = 0 | S = 0 | Stoichiometry = C24H33B9PRh | MND = 9
H        -8.14713055628947    0.56290224941727    8.99647427801775
H        -6.22075081635439   -3.02201052696280   10.36159878304997
H        -5.85782758502525   -3.19294328249529    8.01477730626415
H        -7.17590562355522   -3.43864559366308    6.88433192994707
H        -7.35967634024353   -1.05457052920444    6.44086935727644
H        -5.71424451680221   -1.61285959978847    6.15255570149644
H        -6.03194151681068    0.65574364497470    7.49545632958624
H        -4.57963258696490    0.22344538285470    9.38262754009906
H        -4.75709050506663   -1.58207527877947    9.15329953651611
H        -9.51007744428775   -1.17583788386963    7.65475853798993
H        -9.53873517809100   -3.94908131607364    7.49539429113766
H        -7.36102134558824   -5.06867665550187    9.16688635504046
H        -7.70410807274664   -1.67700436964832   12.37987391656888
H       -10.16672217829203   -0.29993316063351   10.74266486408617
H       -11.57225664569180   -2.49378544128350    9.38625745791872
H       -10.37539812312880   -5.12731126664538   10.27527891782789
H        -7.87395462900412   -4.47947157320711   12.05114589833934
H       -10.50547567318239   -2.76610376405173   12.22997941629070
Rh       -7.56530044695764   -0.64202539154920    9.71194308889375
P        -6.91386414568365    0.95963219753785   11.21336071049659
C        -7.81232311418317   -2.62496432010735    8.77337889811033
C        -7.28881234998920   -2.83712514527564   10.24448787468135
C        -6.78647503753610   -2.74913251667231    7.63945806309435
C        -6.46069257899171   -1.42770385037649    6.93542346748264
C        -5.92419156010591   -0.36222803096819    7.85483240471826
C        -5.10560842040801   -0.58984105382217    8.90587752189024
B        -9.22425856299366   -1.72598303098346    8.66006905147691
B        -9.31441381437188   -3.49149491395218    8.55762799371264
B        -8.06629573140298   -4.20035622787848    9.53608917436604
B        -8.19661459310845   -2.06132956205113   11.37249026241641
B        -9.55932269584517   -1.24633755591030   10.37999239924959
B       -10.42160728407838   -2.60918869995025    9.60930220908187
B        -9.72874665568568   -4.15184219039809   10.15276273502137
B        -8.35057275397789   -3.82012442706603   11.20015575140086
B        -9.78684733777641   -2.77161059003117   11.29534223436370
C        -5.93982803381546    0.52492592006559   12.70965729832417
C        -5.07315447124649   -0.55977563704911   12.64112573541174
C        -4.30263048529231   -0.91976369088617   13.73092589970270
C        -4.39347175562462   -0.19582690654390   14.90840819378399
C        -5.25027450853049    0.88979068806090   14.98473512908690
C        -6.01877591410250    1.25207786312732   13.89258215096029
H        -5.01055363376657   -1.12384363738040   11.72125948950691
H        -3.63369971835157   -1.76570329522116   13.66641096270972
H        -3.79839872865599   -0.47744346072349   15.76442906143820
H        -5.32076090512321    1.45847129126821   15.90048192198487
H        -6.68083666773164    2.10323652579053   13.95811053649990
C        -5.85613362437372    2.28812154170694   10.51809264183041
C        -4.63102872723011    2.65065840807974   11.06679456539850
C        -3.85893631190462    3.63319735528142   10.46990891680698
C        -4.29772660247803    4.26581927349122    9.31996984385258
C        -5.51579459114858    3.90906871873385    8.76332637318567
C        -6.28499099751931    2.92515446081749    9.35489359477582
H        -4.27290029413271    2.16589374612018   11.96337082791595
H        -2.90912732123910    3.90438020235997   10.90748182652226
H        -3.69274152866744    5.03128551443725    8.85722219464738
H        -5.86373810662550    4.39771935648545    7.86484506200630
H        -7.23057560022155    2.63547194779365    8.91796071221732
C        -8.25800854370018    1.92868028766956   11.99072979767167
C        -8.49677241216579    3.27140827973629   11.72578789944403
C        -9.56142159297925    3.92234471492271   12.32645666459863
C       -10.39794776943942    3.24201738332408   13.19361252325659
C       -10.16532125976506    1.90248243575420   13.46303067456197
C        -9.10537935892359    1.24938678038818   12.86457878575014
H        -7.84961620920302    3.81852901558841   11.05644610560312
H        -9.73545755151480    4.96742890996478   12.11480060739940
H       -11.22832159381653    3.75313702753909   13.65790058229890
H       -10.81507992102013    1.36482498956031   14.13723644850999
H        -8.92759883947073    0.20491826374747   13.07080271442338

