87
CSD_code = RIBCEK | q = 0 | S = 0 | Stoichiometry = C44H36ClNO2P2Ru | MND = 6
Ru        0.29270089748782    3.79140929120805   -1.40303645327436
Cl       -0.46514401617155    2.24555343654119   -3.20446428766455
P        -1.94335871012737    4.01165730395027   -0.83767214117203
P         2.36380853124732    3.42581925913960   -2.38164443416908
O         1.07265472592887    5.22447229921232    1.00330316407041
O         0.78624945935720    1.81161066749176    0.78306319499729
N         0.06369359919950    5.38645026795206   -2.74155025582386
C        -0.45109284237753    5.30687149261152   -3.96747413776586
C        -0.59013685449923    6.40338170019887   -4.79569297510953
C        -0.18622767519230    7.64534804335846   -4.33436909597028
C         0.35190576245339    7.72825552456296   -3.06352680566407
C         0.47164358911726    6.57834398549446   -2.29307141788720
C         1.06674814309676    6.60275051092277   -0.92649079775384
C         0.86665508650235    5.26389778174826   -0.18564769764431
C         0.57826634975491    2.53501078187591   -0.08965604466547
C        -2.80608174045724    5.09216150938603   -2.01732322153698
C        -2.72039385097279    6.47468872747852   -1.85998264175039
C        -3.26491167392657    7.31645909272329   -2.81071315277463
C        -3.88428628663982    6.78679204834315   -3.93227848613637
C        -3.94637785197154    5.41426173731660   -4.10695039777198
C        -3.40204519986219    4.56586180886738   -3.15901092186510
C        -2.44594034751535    4.66984508961162    0.79008037853644
C        -1.68246976018598    4.28299853380382    1.88729274451004
C        -2.04091297713430    4.68096512267504    3.16190960997395
C        -3.16840103946375    5.46211123645915    3.35277170071858
C        -3.93886304686699    5.83954768555599    2.26532688844361
C        -3.58517303955795    5.44367103278537    0.98822151507718
C        -2.98378656695572    2.51239559415786   -0.82192539788791
C        -2.40702863919292    1.25111344993524   -0.75857798439077
C        -3.20658727015471    0.12336236866154   -0.69409188519619
C        -4.58472116560151    0.24879081210854   -0.68543255487901
C        -5.16547374323928    1.50649108527081   -0.73799455165385
C        -4.37153698039876    2.63499893765993   -0.80111331072514
C         3.89243660969465    3.89369412461647   -1.49454221385450
C         3.86756729813996    3.80438528339458   -0.10597251814420
C         5.00497358737356    4.07641740415816    0.63241936649447
C         6.17777308192843    4.43691556694070   -0.00977479292022
C         6.21063352083543    4.51967479588553   -1.39239064660427
C         5.07682137434155    4.24522420028179   -2.13502523954286
C         2.50607037498088    4.28673008612627   -3.97774390606932
C         2.94549696284965    5.60743774997988   -4.03367594951569
C         2.92696042636756    6.29581672805746   -5.23232765508027
C         2.45771734430751    5.67834793397014   -6.38059561709691
C         2.00032296301850    4.37192302127646   -6.32621644282940
C         2.01615849594259    3.67772249922798   -5.13017561206219
C         2.84018018409580    1.71960345911827   -2.82461940838110
C         3.87948875991223    1.49983076343856   -3.72570254478676
C         4.27621457153155    0.21105752310563   -4.02600237451760
C         3.64653992500449   -0.86899987042801   -3.42803741256038
C         2.61640403603986   -0.65535210234058   -2.52893742178960
C         2.21593401337568    0.63380268980669   -2.22545162747994
H        -0.75593478257106    4.32017347885597   -4.29660337449305
H        -1.00997795811855    6.27928073182172   -5.78047742173191
H        -0.28461308445530    8.52634156154659   -4.95038265654331
H         0.68700047930082    8.67204808917902   -2.66072155195012
H         2.15094893472190    6.75645882752460   -0.99047396091665
H         0.66404244674898    7.42533757499786   -0.32685637392094
H        -2.22504715307232    6.88046388260870   -0.98599342833342
H        -3.20378446061867    8.38753076777123   -2.68037240908526
H        -4.31137021515243    7.44678864295831   -4.67310365278106
H        -4.41535749206939    5.00232596799868   -4.98850317507340
H        -3.42533081247390    3.49430547156076   -3.30151178098565
H        -0.79594807948140    3.68477446127029    1.73302188286095
H        -1.43656881241008    4.38414582402818    4.00570966587739
H        -3.44835358509128    5.77769523851453    4.34717762043200
H        -4.82171965226000    6.44557015193305    2.41136535377141
H        -4.19422010793459    5.74825795756559    0.14836222514305
H        -1.33080927869919    1.15330230940294   -0.78495158520145
H        -2.75123447176109   -0.85506756151190   -0.65462568873354
H        -5.20894543535219   -0.63157320519603   -0.63901230477814
H        -6.24131938523547    1.60701602195964   -0.72992988922588
H        -4.82777167843054    3.61445111936517   -0.84221676860209
H         2.94596397192413    3.53397989093640    0.39255985044318
H         4.97275180093192    4.01056865545662    1.70948062787422
H         7.06644672253691    4.65384955020427    0.56451173484622
H         7.12506585863964    4.79846564214068   -1.89625592960446
H         5.11517900374181    4.31717895669698   -3.21287086172816
H         3.30747209839983    6.09144439343829   -3.13539621657565
H         3.27575924575913    7.31802679513717   -5.27011596787005
H         2.44443340346543    6.21902121123465   -7.31566941197405
H         1.62353711419087    3.89314244477724   -7.21807860968940
H         1.63527601734839    2.66738070965771   -5.07577718895711
H         4.36953747279754    2.33689173024103   -4.20278091623662
H         5.07850410687377    0.04807853530904   -4.73125220112684
H         3.95759851667258   -1.87529518670073   -3.66753746325376
H         2.11936256697188   -1.49430485511917   -2.06483372784191
H         1.39725828911819    0.79966413623111   -1.54009057285852

