71
CSD_code = RIBJET | q = 0 | S = 0 | Stoichiometry = C28H33BIrN7O | MND = 6
Ir       -1.63036990627939    6.95859341043517    4.76297851724723
O         0.09091257676946    5.46899116868608    7.34084889838566
N        -2.93960747764144    6.12735638089629    3.22119925195338
N        -3.22056426442662    6.90246944558878    2.16376326649691
N        -2.82896714461849    8.81388237104008    4.49094925178370
N        -3.11592436566577    9.15265187062176    3.22513419161396
N        -0.44811708110204    7.67340177609617    3.13983660594468
N        -1.10043239009369    8.21471303384466    2.09369737376777
N        -2.07777776425001    6.32677737281727    7.51212416608801
C        -3.56709866888352    4.96693830905321    3.05839551292892
C        -4.28123464174404    5.00107381587042    1.85618826393191
H        -4.88767592371187    4.22123995170508    1.44153638865696
C        -4.03515644929544    6.24811539481812    1.31459396716252
C        -3.48771930121740    3.82590276571136    4.00998284575340
H        -2.85623355684286    4.07921137791663    4.85551339275758
H        -3.06442228525807    2.95648053215240    3.50886151961056
H        -4.48250148554322    3.55914535621985    4.36589152941783
C        -4.54488090149778    6.81485862183497    0.03806581288682
H        -5.12343533243082    7.71931064476707    0.21910283058146
H        -5.18130715451455    6.08319892263601   -0.45307942125383
H        -3.72201783250501    7.06846726429780   -0.62818094546878
C        -3.40472035160904    9.70854831174318    5.28844052108015
C        -4.07930576980519   10.65274318784546    4.50945337327046
H        -4.63940279357883   11.49736992921357    4.85715344329296
C        -3.87263813429790   10.26512799825728    3.19997655929112
C        -3.33346460520338    9.70445331752812    6.77544522301772
H        -3.25046696703929    8.69276259645914    7.15853601615662
H        -4.22949045202843   10.16882457318792    7.18276307146669
H        -2.47117900732891   10.27790924385370    7.11652888684112
C        -4.37358561549626   10.91495269486573    1.96013442869436
H        -3.54697873259222   11.21364109081420    1.31786055366048
H        -4.95009555692932   11.79797032688557    2.22403904264906
H        -5.01055268675344   10.23513068938568    1.39657755703182
C         0.85596630793616    7.73365647445286    2.87782086768062
C         1.04463811338134    8.33370264524752    1.63004336956712
H         1.97800748720532    8.52365602487391    1.13968399391115
C        -0.22053756269129    8.62654524896261    1.16227254090317
C         1.94282537424844    7.25202021728814    3.77191288466545
H         2.26577907663663    8.05348756058328    4.43647730945305
H         2.79666400297286    6.94815410335709    3.16994957062385
H         1.60973730891848    6.41093173898984    4.37057397028859
C        -0.59276962750587    9.27599049303326   -0.12260195778377
H        -1.22116999435522    8.61978977973186   -0.72233926410357
H         0.30993804912318    9.50543055800819   -0.68306289651358
H        -1.14034922076113   10.20018783870218    0.05461511019795
C        -2.71256996254717    6.38297649750148    6.30279163187572
C        -4.09626999833248    6.09169989367779    6.34725219809725
H        -4.65031185460912    6.14919166172846    5.42378563832633
C        -4.73526629825039    5.75187348876593    7.51024789007041
H        -5.79393590681596    5.53813585915944    7.51891380507733
C        -4.00225610845866    5.67731868613112    8.70599642157533
H        -4.47268874762849    5.39850208269982    9.63416423222835
C        -2.66996621527846    5.97292884275099    8.66307305204849
H        -2.04108411162243    5.93992805917240    9.54102484152237
C        -0.48584241956135    5.26687071806024    4.94047498287273
C        -0.26212998288206    4.48519873539425    3.80385634993567
H        -0.70922005187820    4.78230663722527    2.86591502311944
C         0.51425615416528    3.33970541907205    3.81583525881258
H         0.65201330043316    2.77240888648189    2.90624067102029
C         1.11271300989195    2.92612255061552    4.99230314206539
H         1.71903529980210    2.03272077618171    5.02051080420651
C         0.93057772067096    3.67619276046471    6.13593505613852
H         1.38939317190839    3.39431237635243    7.07164711165549
C         0.14899262365080    4.82783120575090    6.10812982735774
C        -0.64137464730290    6.65061446907250    7.46509210139156
H        -0.34814136994189    7.03947824188235    8.45273260444629
C        -0.44236481793579    7.65224162509000    6.33194413670273
H         0.63056524237286    7.71929645599677    6.14642735074632
H        -0.76145476079176    8.63460463928765    6.69004419162210
B        -2.63052375448173    8.31374318103701    2.03479110218038
H        -2.97166280627236    8.80732982017391    1.02011317931511

