53
CSD_code = RIBMIZ | q = 0 | S = 0 | Stoichiometry = C20H26N2S4Zn | MND = 4
Zn       -0.55412019803602    0.56379311943794    3.81156229414681
S        -0.22821560065124    0.90574114561164    6.32958503929709
S         1.35596372086453    2.23541243991339    4.27111505468903
N         0.91186451880401   -1.20186306182870    3.57626782897116
C         0.93498633702238    2.04211260770140    5.88920011672693
C         1.58925092669978    2.84343285327796    6.91301975381072
C         2.72506421390482    3.59849356756652    6.60836506400740
H         3.11908597769907    3.57243265370676    5.60375205135437
C         3.33712452883524    4.36421814610095    7.57955160494476
H         4.21534656701399    4.94149051488505    7.33073927283488
C         2.82759588128323    4.39537916538138    8.86825573299202
H         3.30643166627768    4.99861024973400    9.62547476789464
C         1.70035004778229    3.65239847677098    9.18139059068138
H         1.29694614358848    3.67684878717880   10.18295544325821
C         1.08573571165870    2.88126333859358    8.21588489299394
H         0.20354830280260    2.30685211090555    8.45491073314041
C         0.05379401116995   -2.36425267568211    3.35103875436694
H         0.61659544957488   -3.29704970638361    3.50165362638665
H        -0.28302955703813   -2.33476260626916    2.31355897072450
C         1.74315811477626   -1.39251397396479    4.76037327450522
H         1.12703198534511   -1.52035215557143    5.64681259482003
H         2.36513703078350   -0.51169971502630    4.90818816248827
H         2.39471442372651   -2.26809451408629    4.64861008009655
C         1.78875310472860   -0.99267964709416    2.42717248971174
H         2.39928986076527   -0.10877916953671    2.60030642109786
H         1.19557351971100   -0.82480861479412    1.53117591438461
H         2.44563268296756   -1.85555777550344    2.26669505943675
S        -0.87794172827050    0.90473735654063    1.29281737770333
S        -2.46549276942588    2.23419337281012    3.34948303303285
N        -2.02010706498110   -1.20123327728153    4.04793133712232
C        -2.04182122957585    2.04063445410693    1.73224083004301
C        -2.69361328918612    2.84292657472331    0.70762871907338
C        -3.84235570767081    3.58095989114979    1.00503272182912
H        -4.24845419799544    3.54047065491333    2.00438800839169
C        -4.45202453184154    4.34765779795902    0.03310419438128
H        -5.34065684751965    4.91139772700484    0.27595550943939
C        -3.92678075035147    4.39713979309947   -1.24870045281675
H        -4.40366932879422    5.00135299944781   -2.00635918583796
C        -2.78642148049974    3.67127439166540   -1.55440160846472
H        -2.37084323786832    3.71012599766038   -2.55049812551180
C        -2.17441003001894    2.89872365413577   -0.58833870976081
H        -1.28209009458472    2.33758161710781   -0.82124218528573
C        -1.16227635825785   -2.36348509848097    4.27472489208248
H        -1.72527251353592   -3.29637166174822    4.12539136597364
H        -0.82543805188888   -2.33262294451208    5.31216285822921
C        -2.85106193088004   -1.39301834314990    2.86377237980661
H        -2.23469540591891   -1.52198199775029    1.97766329476998
H        -3.47277223306138   -0.51221415175968    2.71478852731248
H        -3.50286846045094   -2.26831069772911    2.97629370571211
C        -2.89729963626692   -0.99060667454695    5.19652911975302
H        -3.50749625061309   -0.10668648184412    5.02230812276758
H        -2.30433958007548   -0.82200215799830    6.09253393356955
H        -3.55450666254333   -1.85310835652778    5.35767474684976

