46
CSD_code = RIBMOF | q = 0 | S = 0 | Stoichiometry = C21H19NS4Zn | MND = 5
Zn       -1.02811680524894    2.85583882200313    3.35193384718426
S         0.03502779187956    3.14355935533584    1.08727069427211
S         1.47424891873890    3.05941948698946    3.62920413204045
N        -1.02020090913168    0.68090530946007    3.34147180967427
C         1.49012418127921    3.13752530890917    1.94378799119231
C         2.75202821068747    3.20722441873605    1.22994542566885
C         3.96899019155681    3.10942614803158    1.91281353490760
H         3.96077298585734    2.97476105263947    2.98353234558443
C         5.16392177595819    3.18123245136643    1.23078135486589
H         6.09332389215736    3.10232765933502    1.77624920159563
C         5.19310104779948    3.35448725401206   -0.15006746118100
C         3.98285382197572    3.45222127534999   -0.83013360793128
H         3.98449985596581    3.58841748198265   -1.90202943313508
C         2.78227912851099    3.37937325823142   -0.15787156423612
H         1.85119979816617    3.45973214327184   -0.69755411072804
C         6.49396922723526    3.45908067129634   -0.88059896375960
H         6.39020611388205    3.12679981889326   -1.91076496274950
H         7.26409853906834    2.86807755809013   -0.39029089184109
H         6.82591624995552    4.49798416299715   -0.89358505030546
C        -0.57096574676499    0.00169263081646    4.39092884225406
H        -0.22975884488006    0.59408896292449    5.22916663916310
C        -0.53617832468805   -1.38141980540182    4.42366738466757
H        -0.16367702911260   -1.89179611333505    5.29758276998072
C        -0.98625897634416   -2.08501499341722    3.31757523878045
H        -0.97273959429848   -3.16478767258679    3.30796765437628
S        -2.09613153612048    3.12718045957265    5.61595376883953
S        -3.52924654503919    3.05964758958505    3.06998860145647
C        -3.54903048190079    3.13263245067958    4.75549236190552
C        -4.81259344964295    3.20773553448110    5.46582525400955
C        -6.02779085599872    3.10698155798105    4.78024627100179
H        -6.01675024210525    2.96362214123173    3.71067844221372
C        -7.22453818359952    3.18678907271295    5.45817370228528
H        -8.15251914058075    3.10560828902419    4.91062110264829
C        -7.25730050642088    3.37143808812296    6.83744937382677
C        -6.04879241258449    3.47117065857102    7.52033930264315
H        -6.05330572494691    3.61591019386187    8.59111140042821
C        -4.84639072043222    3.39007731844588    6.85223576873517
H        -3.91668256161854    3.47260546345340    7.39397542744679
C        -8.56003159557523    3.48630020133121    7.56311860957060
H        -8.46156631287700    3.15822777954527    8.59515690297513
H        -9.33174646320991    2.89730266927318    7.07291573465647
H        -8.88626849182278    4.52708102137973    7.57028735941810
C        -1.45337338968628    0.00916135659397    2.28041797769566
H        -1.80935850359926    0.60766219726951    1.45286262529426
C        -1.45420978754760   -1.37352239671936    2.22383331199064
H        -1.81413859487618   -1.87786829233486    1.34123388060984

