47
CSD_code = RIBPUN | q = 0 | S = 0 | Stoichiometry = C19H20MnN3O3S | MND = 6
Mn        1.80695953484890    3.99595618726864    2.15489850716245
O         3.07127019283933    2.64347777358651    2.55027264428933
O         1.27819425561303    2.99733744417251    0.71696299165949
O         3.19167985629227    4.92726889492741    1.19220756201390
N         2.33035319385594    4.76109387840458    3.83034012435537
N         0.19584609435303    3.04688576806161    3.38405130309487
C         3.56533628853493    1.79178035465549    1.77423324906802
C         3.07439558581783    1.46275465603582    0.48834098773465
C         3.67781793649576    0.46282788769678   -0.29971932639311
C         3.16787239224531    0.12622464175539   -1.52312437955034
C         2.01410254860975    0.76811287010370   -1.99978847529196
C         1.38283461059135    1.72644543832556   -1.25571060802794
C         1.89286187278206    2.12629428640919    0.00644563190848
C         4.13622455652801    5.64064758966394    1.66859135435260
C         5.10581685472354    6.17524657060843    0.77203919585294
C         6.13994996764717    6.95091040686737    1.20905271145869
C         6.27841447660924    7.25959022371833    2.57107074253251
C         5.36626218013659    6.77716696743403    3.46630919481065
C         4.28487393966542    5.96309826802075    3.06365686504074
C         3.37368394243391    5.50989972622133    4.04573024843615
C         1.56230977479384    4.33600439505213    4.98961373026298
C         0.15172335312539    3.94341491118508    4.55018229724142
C        -1.11458102430359    3.02804797845971    2.72986316040306
C         0.51421835034101    1.68126295351099    3.80542658345434
S        -0.63611854313295    7.74348490035444    1.11374975670776
N         0.70711731688056    5.44429739303819    1.83050933687937
C         0.16942109194637    6.43709270368367    1.48199162867435
H         4.43089517165563    1.22123628389842    2.14365795897113
H         4.56254511838665   -0.02630811677174    0.08375696234638
H         3.64573715669874   -0.62985095509574   -2.12719731099802
H         1.62151324433877    0.49694479532938   -2.96900441776385
H         0.49837719767588    2.22959927580762   -1.61718809230438
H         4.98696073725083    5.93332356134170   -0.27336258710600
H         6.86018646961228    7.33588637778511    0.50175069607441
H         7.09978114616271    7.87644520169805    2.90191019694105
H         5.46341360365011    7.01170515299445    4.51774394631237
H         3.57946955760507    5.82989066569598    5.07070959583900
H         2.07194142029985    3.48042884770311    5.45325738906810
H         1.50192509074445    5.13768736804395    5.73699187819478
H        -0.39077810039152    3.47472070650841    5.38457279668047
H        -0.37519616933177    4.85229449824843    4.25032536581504
H        -1.37334937565796    4.03004196511862    2.39429705473070
H        -1.88945270107030    2.66133007052884    3.41512308416862
H        -1.07307769430057    2.37820829159525    1.85753203029802
H         1.48462319949722    1.64896565024508    4.29756239935877
H        -0.24876730734311    1.29860449289542    4.49758379882794
H         0.55071163424089    1.02912079720757    2.93228023641646

