70
CSD_code = RIBROK | q = 0 | S = 0 | Stoichiometry = C20H42O3P4Ru | MND = 6
Ru        3.18536957743766    3.06154877803925    1.68882975850066
P         0.90757114200188    3.70240207789560    1.55511760765889
P         4.34140193078944    5.06505716271833    1.57542480885821
P         3.29887840156323    2.41544045736167   -0.50488048016119
P         5.02424261635783    1.84064404792578    2.41508438349139
O         1.92261419267443    1.44934240523601    2.19910972891964
O         2.98701903478427    3.74688607981895    3.65379062789472
O         2.54330657935742    3.66196863249419    5.78143158867551
C         1.91444005264281    0.94589162296063    3.40982754460352
C         2.22425127591788    1.64076634936579    4.60214393349361
C         2.14827232220732    0.97590643046990    5.82458234748752
C         1.78459865241781   -0.34882717876310    5.91361929419143
C         1.45607860105840   -1.03281093071494    4.75184822659328
C         1.50561559637703   -0.41222124459665    3.52230431496370
C         2.60305295910497    3.09884233820117    4.68918141703636
C         1.11828279354569   -1.14845689937224    2.27088814589419
C        -0.26027386753060    2.56843473133536    0.69581068733400
C         0.06305729122153    3.80945001017835    3.17343334493775
C         0.26359962446404    5.29212087852621    0.84589210382942
C         5.32814056908924    5.45127729070882    3.06851951627044
C         3.31154056156502    6.57827527414038    1.54676466415722
C         5.56511816153184    5.49854727445678    0.26669821507038
C         2.53146742186379    3.57887122117706   -1.70636253594543
C         4.88281158466133    2.12527717133151   -1.40152702429093
C         2.45808300417427    0.84964590309136   -0.95983940436095
C         6.72055407776414    2.12941896748001    1.75078300174482
C         4.89721802493951    0.03350537752726    2.12908361276982
C         5.42232155297679    1.83632195777630    4.20376375673278
H         2.38301241383914    1.54939884809792    6.71008061514099
H         1.74389983789273   -0.84632570560832    6.87134900450139
H         1.15364636359977   -2.07087840785401    4.80395192921465
H         1.10396673855499   -2.22286951831173    2.44293056368507
H         0.12364897192831   -0.84115480999472    1.94119896700071
H         1.81560426745228   -0.91911643493382    1.46584227702181
H        -1.27814744903953    2.89058367864377    0.91511304806021
H        -0.10419724834007    2.59090638582802   -0.38053612788180
H        -0.11275753620208    1.55769876297262    1.06523843453280
H         0.56844823227000    4.53322041959378    3.81131029375197
H        -0.96981499841292    4.12167939009185    3.01149481572170
H         0.07985339217426    2.83997233711906    3.66901387371592
H         0.49821361431118    6.11152456775456    1.51981404015940
H         0.70774959808685    5.49759403789248   -0.12526585435128
H        -0.81822624420664    5.23219542085646    0.73442895236514
H         6.15287975445995    4.74946951478970    3.17244888887856
H         5.71663965737293    6.46804385134187    3.00382969078254
H         4.66962614824873    5.35533211991836    3.93036843146767
H         3.93812017925319    7.46526951979757    1.64416563232582
H         2.74534174230166    6.62854736168692    0.61920224022536
H         2.62828124976614    6.51574651917178    2.39225220128713
H         6.36962686708356    4.76642605437353    0.26076303671730
H         5.07802191710148    5.49487949282485   -0.70616931542358
H         5.97817776920059    6.48795750714234    0.45847874376956
H         3.01850305331497    4.54830443358093   -1.61022696213182
H         2.64107109741532    3.21224727156706   -2.72660333432182
H         1.47661277114126    3.69701767119783   -1.47061065369308
H         5.40987659178154    1.28857746817070   -0.94698744551282
H         4.67231991655868    1.88805680921928   -2.44415240297555
H         5.50673135397360    3.01457746835977   -1.35135701516668
H         1.49542161044198    0.80391856589149   -0.45949136935851
H         2.33059626592176    0.77945658735518   -2.04037993276540
H         3.06610819362388    0.01707559966218   -0.60863233757719
H         7.39361134659886    1.35960563400527    2.12673533514781
H         6.71414814035018    2.10330770789464    0.66511859844560
H         7.07998322618571    3.10402886570860    2.07316528845129
H         3.99073266870368   -0.33779471698930    2.60392409301188
H         4.84583806073995   -0.16629122782919    1.05989900949391
H         5.76327924755928   -0.47175106669526    2.55728339313025
H         4.66569835984106    1.26239301026647    4.73733968284749
H         6.40243177740442    1.38292005295651    4.35655035104985
H         5.41798734481831    2.85132276571495    4.59609813292131

