72
CSD_code = RIBSAX | q = 0 | S = 0 | Stoichiometry = C23H41O2P3RuS2 | MND = 6
Ru       -1.42771627723091   11.71224106412834    5.72638685412752
S        -2.30410695542878   13.69931733984502    4.64188367355503
S        -2.11307979056399   10.27461764862957    1.28822200915993
P         0.45928417346780   11.58268865857923    4.39917746332166
P        -0.66130529453118   13.07199319824545    7.41745775655326
P        -1.10509993688245    9.68717151929249    6.77340316311860
O        -3.29612486282378   11.80670229596507    6.76184903083347
O        -2.11003008649702   10.65734938818891    3.96862406152075
C        -4.00744455366014   12.86781846390129    6.63021047901933
C        -3.68979259490554   13.92395498864506    5.74795628283881
C        -4.44211755404975   15.08210018096664    5.67063799806696
C        -5.56551491445433   15.22864267966628    6.45965479411466
C        -5.92996283846439   14.19370273427177    7.31559784770947
C        -5.18122917271872   13.04654862816455    7.40463332677555
C        -3.24646900874397   13.27299116603481    3.14061562097117
C        -3.27740885770527   10.17329578836158    3.67066885386528
C        -3.50966015981203    9.86053467145717    2.30802710935292
C        -4.69437884441064    9.31465178714471    1.87439108508464
C        -5.70999711164895    9.07126901491337    2.79014660835665
C        -5.52043198358768    9.38350459962258    4.12429545451042
C        -4.32673799797287    9.92243525441557    4.56433779142124
C        -2.68581998992329    9.85772901591673   -0.38220673686879
C         0.79687464571516   10.01021627732349    3.53001986982468
C         0.43413137411229   12.71245073531114    2.95985902270801
C         2.14398518177978   11.93014509892433    5.05815074139440
C        -0.10050717246391   14.73999096203111    6.88290544421703
C         0.76358106021794   12.57826535489876    8.47264488209012
C        -1.82050038067985   13.56712970119569    8.75126567506859
C        -2.06493287642055    9.49935583463164    8.32107119730898
C         0.54074721093629    9.07917572129712    7.33853724981764
C        -1.66692030570488    8.21568977539835    5.84132599263785
H        -4.14154544519994   15.86142929974594    4.98393935296060
H        -6.15701205972204   16.12944075833736    6.40448850080498
H        -6.81691009760666   14.29487569923366    7.92570492413358
H        -5.46625357208216   12.24635879080933    8.07254057534281
H        -3.58583043673609   14.20299710871759    2.69068686222086
H        -2.58918490518126   12.73499728187951    2.46504842171697
H        -4.09283308718960   12.64842819049470    3.41378867943265
H        -4.85131460513629    9.07831818156130    0.83226041112580
H        -6.64349423175866    8.64689180070364    2.45115858240176
H        -6.31529207556048    9.20521194842403    4.83606672783723
H        -4.18928955437067   10.18228210524079    5.60545343279624
H        -3.57119528088603   10.43830121139499   -0.62617126599213
H        -1.87333792298676   10.12211780970784   -1.05166257790641
H        -2.88854228777257    8.79254341855147   -0.44971690540563
H        -0.10047107876351    9.73911569122220    2.97882217815040
H         1.62888958350474   10.14852541723455    2.83956697888203
H         1.03763885509405    9.22662599703957    4.24552839573529
H         0.23755900946039   13.73357879078796    3.28487821980777
H         1.38388713991230   12.66567106067848    2.42717426383457
H        -0.36663116293460   12.37800147135412    2.30248068560522
H         2.38291889788606   11.20938659317642    5.83757084827797
H         2.87776690513306   11.85033583734585    4.25725845421182
H         2.17774157404687   12.93219720706382    5.47937385387960
H         0.29420212429144   15.29782832069149    7.73138830325602
H         0.66509533470095   14.64015809764242    6.11557298224162
H        -0.94803626777602   15.27484307524037    6.45584557759966
H         0.45569403226703   11.75216345617168    9.11149255226228
H         1.59570722253227   12.26010882002358    7.85087459382561
H         1.07245969813417   13.41705773467671    9.09543437620584
H        -1.27928669179016   14.10775238964153    9.52790387972321
H        -2.60295146576659   14.20266652632491    8.33864152709372
H        -2.28653611732041   12.67714232066949    9.17065256596123
H        -1.64618901293736   10.15198789853313    9.08551087715482
H        -3.08810614265192    9.81045362663753    8.12164728659491
H        -2.04344435097791    8.46445294117243    8.66169757145297
H         0.41845396032830    8.11896692503260    7.83825848869436
H         1.20063855395124    8.95719005035913    6.48261074054583
H         0.98846465138658    9.78996381615188    8.02734601897158
H        -2.73745775124784    8.29948932846851    5.66149900132395
H        -1.16267025606359    8.18408077343457    4.87758475727007
H        -1.45271580717634    7.30928268107386    6.40844869749614

