82
CSD_code = RIBWAD | q = 1 | S = 0 | Stoichiometry = C40H34ClN2O2P2Zn(1+) | MND = 5
C         3.51927368671518    7.82259285666231   21.14567235885458
C         3.93982685547063    7.15580033061764   22.39080913368556
C         2.33312549775844    7.28220041061518   20.41968795265788
H         2.08964676616632    7.89765727477317   19.55754390612901
H         1.47417870958381    7.25221212073897   21.08772882633812
H         2.52338182104224    6.26516040886186   20.07910987356646
C         3.07873806242453    6.07975409180982   22.96681685864636
H         3.49783367450250    5.71540277156568   23.90147945958655
H         2.98040141957540    5.24234939687246   22.27826782273943
H         2.08124186338408    6.47298646026972   23.15882965305655
C         4.10213006852477    9.41481211745617   19.50375064613044
C         4.23608766899611    8.67758328549336   18.32724112449172
H         4.41574654788491    7.61450450920780   18.38350192690053
C         4.20069831088803    9.32080216083945   17.10315417959238
H         4.31878515816106    8.74417805338459   16.19896133585597
C         4.01722191835072   10.69278241197116   17.03180652829920
H         3.98591813911937   11.18587109074099   16.07318308602321
C         3.89186748326626   11.43366923612570   18.19597478697264
H         3.76142253753055   12.50528861044826   18.15504711947252
C         3.94146623399228   10.80342917315404   19.42817917199350
C         3.66466937639046   13.43755197656065   20.72721874589896
C         2.45341644029503   13.92423894432544   20.24779782621441
H         1.63505191913530   13.24360165776772   20.05905696522037
C         2.30852507608267   15.28055114876905   20.02269851383017
H         1.37241386426946   15.66805092301552   19.65036282099889
C         3.36516893840612   16.14290821161067   20.27731852565428
H         3.24611925035558   17.20083317741313   20.10011180863603
C         4.56888753232877   15.65459752241495   20.76024070145030
H         5.38624131521669   16.33074968319836   20.95872985621936
C         4.72297052038837   14.29836551824953   20.98760645503068
H         5.64916241158085   13.89117900516686   21.36596583119706
C         2.46105666873978   11.00821450029371   21.90227411410723
C         2.52434566009104   10.94810240744521   23.28850741476421
H         3.40224586435667   11.32399412380408   23.79187005248205
C         1.47500948287104   10.39756179838437   24.00286647686291
H         1.52907717214353   10.33815996673309   25.07992739149974
C         0.35552328103811    9.92810511476614   23.33374632110836
H        -0.46567002106789    9.50161746879024   23.89022274304084
C         0.28063696641776   10.01249227438711   21.95154935924242
H        -0.59929883298642    9.65868120840003   21.43483607368282
C         1.33296763713150   10.55005342285788   21.23194180863825
H         1.28424599942169   10.61006081265216   20.15287520985214
C         5.77259014834950    6.87177773813081   23.85361555673827
C         6.14695146723319    5.54358543965555   23.61921202587086
H         5.81742503748395    5.06126027597328   22.71115760770020
C         6.98049292261585    4.88237968874088   24.49844052287048
H         7.26846243934921    3.86344825756323   24.29119173673596
C         7.44809236042026    5.52050222851147   25.63750755836144
H         8.09659704215409    5.00095415064076   26.32474794872484
C         7.08566728546915    6.83235870258260   25.87976984825743
H         7.44737652036904    7.34643464548448   26.75818156562836
C         6.25828704281910    7.51604589327908   24.99799534980941
C         7.18784594908999   10.03689075003202   26.14904840618215
C         7.34675913346828   10.00902284598719   27.53032227739279
H         6.60643607157189    9.52010444283036   28.14943779176891
C         8.44830334568332   10.62089787525098   28.10038426319237
H         8.57665300713796   10.60644707711878   29.17216187737123
C         9.38492320906488   11.25203135022375   27.29572733302198
H        10.24360167850950   11.72664030464277   27.74572873229306
C         9.22310403245928   11.27747634908363   25.91937591887839
H         9.95509548632129   11.76784672516285   25.29637854419795
C         8.12382656359864   10.66924185498750   25.33971224504000
H         7.98577432569411   10.67541599607719   24.26768217081883
C         4.39847843810490    9.18417557765683   26.53080665862160
C         3.83184750862983    8.01211530999069   27.01002996663769
H         4.24742106021391    7.05535112359719   26.72494593415187
C         2.74259063099019    8.07883492494468   27.86314386840240
H         2.30053535583931    7.16967148599493   28.24202845024929
C         2.22292985963962    9.30854175762067   28.23386778017471
H         1.37513881279375    9.35473087566046   28.90029997107762
C         2.79043708423360   10.48054031115502   27.75541670173825
H         2.38627333520994   11.43751937003595   28.04948817408322
C         3.87790126592748   10.41872430697009   26.90400515503085
H         4.33882094189988   11.31895700594965   26.51998865788732
N         4.22206523957980    8.81803823190297   20.75256363293934
N         5.04936051009713    7.54580973853300   22.88938228524794
O         5.17677423978977   11.42038959943160   21.74862449376744
O         5.33970045527763    9.94456556430994   24.12123751750715
P         3.90041524421168   11.67536760999398   21.01924299137375
P         5.78107867747576    9.22742823082354   25.35617824522436
Cl        7.73647135307701    9.17635551600475   21.92320980991394
Zn        5.68833597220705    9.54841322884476   22.20188965849773

