90
CSD_code = RIBWEH | q = 1 | S = 0 | Stoichiometry = C48H34ClN2O2P2Zn(1+) | MND = 5
C         5.61575658559594    7.48116239228079   10.46455765888076
C         6.94641467608695    7.90971257968503   10.87513259492750
C         7.71770072681556    9.02979336283029   10.66657421955235
H         7.34521363474400    9.88185762545562   10.11880870117173
C         9.02242597867447    9.05287707109404   11.18962949522261
H         9.62070308992987    9.93666653775169   11.02722918340480
C         9.55736907964256    8.00315798643773   11.89824884867765
H        10.56151946615852    8.06715954988876   12.28918203761356
C         9.19925195621847    5.66232526463251   12.80581772571648
H        10.18501649024859    5.61526398235006   13.24338129415165
C         8.34026229888681    4.59459324763731   12.91914207296759
H         8.66482611265326    3.71259496330485   13.45041575204172
C         7.04709255695817    4.59763414820045   12.36862032200720
H         6.41626905486625    3.72975354392310   12.48332617683638
C         6.62206427843256    5.72132100043588   11.69678731711517
C         5.43004556905514    6.08765409741980   10.94617035095108
C         7.50494243241885    6.82327910897341   11.58992827364302
C         8.79994276870787    6.83055370336863   12.11861264093167
C         4.55764254295066    9.39341773530797    9.58708710348930
C         4.69084820074558   10.28179930845564   10.66154000890726
H         4.92948458682632    9.88550488220435   11.63765647149693
C         4.46260572114675   11.63130566324193   10.48829434162796
H         4.55569717396267   12.29790292713030   11.33168961064290
C         4.11048306506034   12.12989048246501    9.24200136469498
H         3.93688995302767   13.18584424185026    9.10812147553157
C         3.97063349683070   11.26167308304517    8.17502978477523
H         3.68833293961893   11.63352821697828    7.20075935875060
C         4.18267859751268    9.89834916396498    8.33566893525308
C         2.69428278262153    9.45455646285788    5.86980329671671
C         2.96403230371014   10.31282384747908    4.81056395234788
H         3.98584285247945   10.58316429547060    4.58036006536406
C         1.91667278114435   10.80461165889068    4.05226872342022
H         2.11757190311755   11.46788010114801    3.22454728136285
C         0.61227372346510   10.44430833975344    4.35436632081047
H        -0.20071329453736   10.83075547316633    3.75871967998173
C         0.34767716977717    9.59021004756488    5.41389681716918
H        -0.66895347657528    9.31334818933897    5.64656946494926
C         1.38802161705438    9.09177114566092    6.17732898074497
H         1.20087559242165    8.42496150407911    7.00771855317386
C         5.57901255252075    8.83042118351311    6.00027835064892
C         5.68385489232890    7.96084186868778    4.91978916701664
H         4.83387128274366    7.34433088956092    4.65952416500313
C         6.86097619660219    7.89689463133201    4.19745673657813
H         6.94499174826371    7.22420217273480    3.35706908207870
C         7.93336567269084    8.70084578770422    4.55511941018084
H         8.85281866802526    8.65259526048235    3.99190532622968
C         7.82893935369562    9.56670044936713    5.63195106240630
H         8.66547374110763   10.19179775505460    5.90503689035735
C         6.65158620128615    9.63474848643937    6.35816140319791
H         6.56125681335807   10.31391421839408    7.19436959491236
C         4.01931829536155    4.20415000913518   11.10945560269510
C         3.79658359338533    3.97655202044911   12.46542062832411
H         3.92983249595623    4.78540351858119   13.16846722472807
C         3.36379210175591    2.73147301436475   12.88590077369139
H         3.17995157031891    2.56210689938832   13.93562979075337
C         3.16413367842688    1.70614902935407   11.97384804179149
H         2.82825117328725    0.73904450476116   12.31328284709859
C         3.38348396505924    1.92697936064381   10.62346446455802
H         3.22585310589377    1.13812376867618    9.90229562249092
C         3.80187412147364    3.17293810713791   10.18822694322151
C         3.78271332690760    2.21311827704578    7.40093530450595
C         2.65510573361756    2.20512283920885    6.59009709273852
H         1.99699805761495    3.06165345925754    6.59940255961502
C         2.39968892292034    1.10629676706695    5.78890084089783
H         1.52477354569095    1.09133202331300    5.15719833388182
C         3.26758357483620    0.02581316720287    5.79992030214661
H         3.06703373547862   -0.83153323837951    5.17572589206927
C         4.39576048360236    0.03948688412836    6.60715478597645
H         5.06953591031979   -0.80387189691190    6.60841232316294
C         4.65858123633649    1.13335008087627    7.41094615842437
H         5.53768056523798    1.15616477493058    8.03935375525291
C         5.80212195136783    4.16942890273242    8.37926189522522
C         6.78510370551665    3.57227324954980    9.15942936675477
H         6.53889920464029    2.72315173784481    9.78212393986651
C         8.07153333592161    4.08105839578708    9.14918420809980
H         8.83646187385086    3.62159660050162    9.75736930140531
C         8.37570586897266    5.18667255794245    8.37043927186774
H         9.37696765368445    5.59021277605210    8.37987983697827
C         7.40124060434077    5.76895943397203    7.57546168590921
H         7.64132636839617    6.62178800489335    6.95758274433269
C         6.11642610086553    5.25554408574690    7.57249326853093
H         5.34638128537540    5.69544106021872    6.95648398338412
N         4.66726987421441    8.03780974322891    9.81353796449325
N         4.37059696357849    5.45259546654558   10.61853971882878
O         3.71633694765187    7.38464185368960    7.32841755636008
O         3.13610649225612    4.76061095622028    8.09632956491841
P         4.01008899633012    8.78736266675618    6.91207739646941
P         4.06090751008031    3.64821010233552    8.45500656944369
Cl        1.36507103154354    7.29319365937659    9.64844401834345
Zn        3.22588092684701    6.51963573736814    9.06778097513370

