83
CSD_code = RIBXEI | q = 0 | S = 0 | Stoichiometry = C40H34Cl2N2O2P2Zn | MND = 4
C        -0.72805507077211    5.18132026162533   17.33001354848776
C         0.23995798932032    4.76896328490617   16.29254570966831
C        -2.17316704837473    5.17868337705760   16.96181457242056
H        -2.80748620516822    5.18645353593079   17.84487314536199
H        -2.40609432353465    4.33191844875328   16.32257333999632
H        -2.36568581816658    6.08838207100502   16.39045845589569
C         1.68240356714086    5.04995471266520   16.54564302147451
H         2.32189544175673    4.44586057876327   15.90653093040990
H         1.92622895762566    4.90021010627659   17.59347883131499
H         1.85559079726601    6.10178824289473   16.31157354876485
C        -0.98446035057472    6.08041045579814   19.49228755232489
C        -1.73883808152224    5.28886215287710   20.35548154042355
H        -1.83193915950369    4.22982578710933   20.16314020186506
C        -2.34505231969051    5.86660227012504   21.45608310008266
H        -2.92922401375576    5.25002879032990   22.12328283375137
C        -2.22064946229618    7.22498908889647   21.70594852885744
H        -2.70869456884475    7.66405157883254   22.56242516413522
C        -1.46072778615887    8.01671238784166   20.86063608581680
H        -1.34597744866016    9.07449727711690   21.04908658302158
C        -0.82880875551816    7.44513927638731   19.77088275945636
C         0.26892010285973   10.06006761895529   19.08695563366689
C        -0.43921356701402   10.99770369721239   18.34800244399909
H        -1.00882527441064   10.67856603246009   17.48600576447129
C        -0.40524469029536   12.33118776238924   18.71613006897291
H        -0.94987512319893   13.06182000797306   18.13740873005260
C         0.33011357104239   12.72445387950637   19.82206361938429
H         0.35970764658810   13.76580038442674   20.10710101128508
C         1.03360255367112   11.78704342244290   20.56361768624645
H         1.60762729417187   12.09828463273877   21.42416791389646
C         1.00646993616906   10.45445656850257   20.19769499579818
H         1.55770511603135    9.71493049243592   20.76246565940990
C         1.91308549278427    7.70490964540228   18.80523862718885
C         2.86457089579440    8.07683447863776   17.86301597712514
H         2.57567701156117    8.68665567185669   17.01750463884202
C         4.17647911090534    7.66212878227577   18.01230103697413
H         4.91410899492805    7.94888092144791   17.27813006703171
C         4.53989293170682    6.88727415299070   19.10179045688803
H         5.56405693397866    6.56406544141518   19.21797500636830
C         3.59236767290709    6.52958167716972   20.04800392685333
H         3.87822787030723    5.93063535832411   20.90062073105168
C         2.27914830734805    6.94068801448120   19.90529911318005
H         1.53647638828304    6.66373880016306   20.63991279583612
C         0.49521262104655    3.90693325305390   14.11541862592272
C         1.26267296155896    2.74657577050727   14.04215711995805
H         1.36729737421645    2.12107943973625   14.91681079345124
C         1.86717354024763    2.40289913614084   12.84677962733757
H         2.46138432828692    1.50254026003879   12.79357599158331
C         1.72815710010634    3.20350239184039   11.72300936522711
H         2.21502533880530    2.92884565290762   10.79995623886605
C         0.95519931251792    4.35139530288075   11.78330201940064
H         0.82893499118888    4.97878903533712   10.91264238148095
C         0.32504917298663    4.69187618562948   12.96682370957848
C        -0.80249291191561    7.03420977038609   11.64328429746085
C        -0.09750357165512    8.22345808352574   11.51870254223809
H         0.47556009785234    8.59489460077894   12.35710723896205
C        -0.13875771098072    8.92553715112683   10.32699262498760
H         0.40362935550559    9.85407112103911   10.23204714324663
C        -0.87821895186001    8.43737148401994    9.26238426776732
H        -0.91330573189234    8.98721349540643    8.33342696236359
C        -1.57876793132926    7.24671156695554    9.38503712212136
H        -2.15628794770904    6.87081094932586    8.55313761501995
C        -1.54428229244761    6.54358948273544   10.57455542982643
H        -2.09310612553000    5.61831341738463   10.68563684985598
C        -2.42489756421402    5.51559598954524   13.48815733692094
C        -2.77453133856638    4.19750633611652   13.22600536565463
H        -2.02393250791087    3.49895640910266   12.88451378491570
C        -4.08143075444032    3.78449820942682   13.41391585943534
H        -4.35444501176029    2.75813697747172   13.21516592097179
C        -5.03909903212898    4.68509697399476   13.85313478396536
H        -6.05828843610673    4.35777229172332   13.99802997475166
C        -4.69220680346892    6.00340837791774   14.10056873467260
H        -5.43791816766269    6.70875833247382   14.43495705756384
C        -3.38671500750635    6.42362659624787   13.91472563899975
H        -3.11097241751501    7.45311073412374   14.10019796941146
N        -0.25643868257268    5.59788583876311   18.43297040526186
N        -0.23150337123002    4.28740867922559   15.21632413073567
O        -0.30394300489650    8.17820369095210   17.19215841363452
O        -0.22405585115274    7.00458365988954   14.31250737181108
P         0.21996200211784    8.32035885625617   18.58236313197263
P        -0.74044067556785    6.13473252906128   13.21511536964344
Zn       -0.27310039288759    8.74158425993314   15.28324374554125
Cl       -2.18692410874831    9.63737822754344   14.77511333610062
Cl        1.62731259053815    9.76031835107336   15.00877834333690

