58
CSD_code = RICGIV | q = 1 | S = 0 | Stoichiometry = C23H30ClIrN3(1+) | MND = 8
Ir        2.93130061959025   14.71560246937053    8.35731431390409
Cl        5.10719139043688   15.15489511321386    9.10238863033979
N         2.77508349107003   13.73786325705785   10.17266380488176
N         2.33986938537954   16.24613360440487    9.64367244540372
N         2.72776401006117   13.91677347748753   12.37570402864390
C         2.78202123014155   15.36042268868307    6.23357988184158
C         1.49548263794095   14.83119874636084    6.61226042224790
C         1.67206667575698   13.46723233037672    6.98350754054761
C         3.06945803207137   13.13757876182646    6.82403726059058
C         3.73425106474453   14.28968170677865    6.30265531888463
C         3.04192749546862   16.66175341671712    5.54881618230089
H         3.20728953357890   16.48118230141685    4.48599286715852
H         3.93185327971463   17.14332299175105    5.94924007146619
H         2.19982246498988   17.34028381488869    5.64873686696780
C         0.18483204620737   15.52858293740595    6.47054149717110
H        -0.22442132555831   15.32292469665848    5.48031579943523
H         0.28899033994848   16.60627763289034    6.56985490197102
H        -0.53350186410125   15.18024757441319    7.20876829777393
C         0.58392337881050   12.49692928747106    7.29481069223461
H        -0.28160057492512   12.99446223232539    7.72439974142727
H         0.92105456770930   11.72857058027274    7.98611140163342
H         0.26806038534656   12.00525226321762    6.37348848939954
C         3.66502267035237   11.77050287964535    6.90616101251005
H         3.76884516155695   11.35875948608946    5.90162299079544
H         3.03654636070075   11.09827493989972    7.48363055656781
H         4.65421936963383   11.80378904904414    7.35781736507036
C         5.13465242175173   14.35059992332329    5.80845834797823
H         5.75974579667343   13.61090102807822    6.30041603591478
H         5.56611046379049   15.33458290781725    5.97333408151037
H         5.14092416680448   14.14943216537142    4.73581793008999
C         3.03804424568481   12.52478681757894   10.70085267224946
H         3.23565986129577   11.66292004489689   10.09726283988025
C         3.01020628164819   12.62635626505069   12.06885874130302
H         3.16590880553577   11.87971144784357   12.82039379353359
C         2.63341198293893   14.48549074910208   13.69206756221361
H         3.41993708324104   15.22672001227876   13.84271902106098
H         2.74787028477429   13.69728869124414   14.43275510241350
H         1.66349587083158   14.96468564492942   13.83152290280273
C         2.59655561559865   14.57947308150694   11.20331465003416
C         2.33529199546251   15.94324890864565   10.90258256328838
H         2.13935013689823   16.66202041340309   11.68775315984812
C         2.15728706162065   17.61533774784990    9.21313962429938
H         1.66790416701917   17.56646349393774    8.23547201068910
C         1.29241102891508   18.46916125246847   10.14642195316464
H         0.37255843062782   17.94864310595825   10.40564944890618
H         1.03538911284891   19.39052549089071    9.63117967866304
H         1.82780039684830   18.74112678414227   11.05229182193161
C         3.51455044628577   18.28247887219767    9.02748586030781
C         3.73232164445338   19.08796867787121    7.91851426472753
H         2.94793885657464   19.22520003862968    7.18874567314843
C         4.94393782446508   19.73562675110416    7.75265997584715
H         5.10169136168164   20.36005349344973    6.88644266845064
C         5.94804533146307   19.58134819244829    8.69261857512138
H         6.89664017564723   20.07737262506484    8.55818296533576
C         5.72895818514456   18.79260360449398    9.80839343456361
H         6.50477721507410   18.67178851094609   10.54820880925591
C         4.51549860259516   18.15006950412436    9.97830004690176
H         4.36237331918065   17.53151551368297   10.85039140340013

