46
CSD_code = RICLUK | q = 0 | S = 0 | Stoichiometry = C23H18HgN2O2 | MND = 3
Hg        1.69617386968133    0.56989100842216    1.43513343124382
N         5.09639874859412   -1.20577910470032   -2.38028484958761
N         4.66488720407304   -0.00825612183711   -1.88963504529416
O         1.91031108271069   -1.67624453147738    0.89673111900526
O         3.13202964520549    0.76926015581587   -0.33228927239663
C         0.51154287524305    1.61148630145348    2.92193095714551
C        -0.35095023498578    0.89105850589956    3.74779388354824
C        -1.12009004384271    1.53925299388294    4.70221624765705
C        -1.04126225323073    2.91251585025592    4.84862818794106
C        -0.18877655754511    3.63728262282860    4.03533707594564
C         0.58285469382351    2.99538693777782    3.07856075642057
C         2.53920104860575   -2.23990332269093   -0.03691067819805
C         3.46090278066171   -1.60179159522118   -0.88446424762563
C         3.68699379894896   -0.18565187323123   -0.94925914741816
C         4.40257335058215   -2.15080929766529   -1.81913859692732
C         4.69997567905594   -3.57235911395091   -2.13502001327282
C         5.25948524368379    1.16758154178074   -2.35972727539809
C         4.83280644565122    2.42597788350568   -1.94739444079422
C         5.45416083865176    3.55655629182090   -2.44641339196558
C         6.49447871538059    3.44977733797915   -3.35314940724893
C         6.91625939452462    2.19562934041821   -3.76427451237530
C         6.30613353540959    1.05852211730921   -3.27381867786788
C         2.25327305911335   -3.68976806432539   -0.24251720808710
C         1.67697484566248   -4.12238245595488   -1.43183603411311
C         1.35532323681252   -5.45713885924028   -1.59907939234692
C         1.61220835893884   -6.36667035750985   -0.58628733156603
C         2.17428917714631   -5.93642759915800    0.60389506601998
C         2.48162032945515   -4.59938269207105    0.78253141251018
H        -0.43034159290170   -0.18533251326832    3.65352298913586
H        -1.78228883438019    0.96338451507570    5.33190849400676
H        -1.64120772873742    3.41548161458461    5.59257543387969
H        -0.11921946775918    4.70992885751503    4.14120095394149
H         1.24173622153345    3.58739679195516    2.45538622597917
H         4.76305564687505   -4.16442216613483   -1.22438981246609
H         5.64589411643629   -3.61669492548593   -2.66853340727537
H         3.92284008237235   -4.00255864786635   -2.76415757066526
H         4.02247470728859    2.51729008664317   -1.24311406288431
H         5.11806879722006    4.53081012747597   -2.12230573720754
H         6.97335364945382    4.33795692900298   -3.73789376306548
H         7.72686455377210    2.10234141681922   -4.47207750591382
H         6.62091207680586    0.07534252766456   -3.58355580494913
H         1.47066312432019   -3.40716272499482   -2.21518848608052
H         0.90284941111772   -5.78919732635488   -2.52209138149084
H         1.36704328357961   -7.40966622104164   -0.72239264575069
H         2.36706195654873   -6.64279404280386    1.39797810236676
H         2.91036112844788   -4.25351819890504    1.71176936348643

