103
CSD_code = RICNOI | q = 1 | S = 0 | Stoichiometry = C46H48AuB2O4P2(1+) | MND = 2
Au        2.15980504555902    6.99050753690447    3.37535602327782
P         2.03537820532624    9.26844480936694    3.13910028895779
P         2.63539698629638    4.78383852379678    3.77035470047595
B         3.62394309819746    9.08065734684992    5.88741915109858
B         4.69535577389663    5.07882094391921    1.36838909091178
O         2.39441717192226    8.52420105999260    5.65842231750582
O         4.24303786268880    9.02246806714861    7.08127381846345
O         5.68752851153523    5.13429080230074    0.46314283082206
O         4.52232825216569    6.02784782357609    2.34359170839263
C         3.66288779913458   10.01778151475091    3.45009500422701
C         4.31004065829436   10.70014123727470    2.42213858745888
H         3.81025136675192   10.84640255026094    1.47458772148933
C         5.58709219749708   11.20067958984311    2.60280201461758
H         6.07178590510768   11.73581533042734    1.79999335968085
C         6.23539863013040   11.01684359685889    3.81246952160468
H         7.23129763631257   11.40645573589201    3.95822279800495
C         5.59786022851185   10.33702695590214    4.83456406895096
H         6.09040895349242   10.19421694214536    5.78429808375650
C         4.31299141815902    9.81854452401617    4.68139455238998
C         1.66015687906726    7.94292844624421    6.72309311545308
H         1.82059541320571    6.85573980587176    6.70118814360430
H         0.60192299716127    8.13974767327003    6.52092345754182
C         2.06328222284888    8.51069729684263    8.09118170945690
C         3.59515622832608    8.42629855273936    8.18989513959714
H         3.95248727615296    8.94975305955479    9.08143213874047
H         3.90955027072973    7.37650220641123    8.25173190477723
C         1.61420541417262    9.96979041089722    8.19883281468398
H         1.89543149131071   10.37936666831811    9.16578237272685
H         0.53415154198011   10.04204816838465    8.09200190817579
H         2.07442308421077   10.57560391325705    7.42041156462962
C         1.42468050074596    7.67679121968301    9.19986106413985
H         1.72922273114424    6.63468831322435    9.13095551866056
H         0.34110409590216    7.72371467867168    9.12778827518724
H         1.72054680813672    8.05787446396976   10.17364672358809
C         1.62861034384455    9.77995249515975    1.44240044871347
C         1.04243139689668   11.00668940134685    1.14464129263302
H         0.81805372547941   11.70411634546191    1.93969479161381
C         0.74833729978591   11.32668788597207   -0.16856476477972
H         0.29165870972061   12.27726014502854   -0.39888936683669
C         1.03607944248820   10.43101552167181   -1.18648095438967
H         0.80218800635278   10.68489404877045   -2.20891769069008
C         1.61652822418881    9.20680913320873   -0.89366555914467
H         1.83453622425686    8.50649914095543   -1.68595305791143
C         1.90648627027497    8.87923349379831    0.41773779978556
H         2.34786903744321    7.91916303038784    0.66358733461047
C         0.85802606406867   10.22414751924087    4.13329044861682
C         1.17862885891681   11.45374703220395    4.69677434980182
H         2.16275412341627   11.87676960069514    4.54658321081383
C         0.23327763858516   12.12720845858287    5.45033811682260
H         0.47858294671587   13.08346683907769    5.88764613094311
C        -1.02446971076333   11.57894124717131    5.64527985308950
H        -1.75667250971714   12.10879013335039    6.23522567484550
C        -1.34435834081876   10.35259460544652    5.08402646011730
H        -2.32529972091255    9.92724103681192    5.23557740070435
C        -0.40403798252445    9.67392668181911    4.33077720846881
H        -0.63723550286757    8.71440970086669    3.88579152592750
C         2.70480261685248    3.68155903899616    2.33022930361614
C         1.76418221804032    2.66189015328844    2.20343738693434
H         1.01397350639050    2.52123090416900    2.96900410316151
C         1.78426190012470    1.82204368413246    1.10422034793888
H         1.05380864625164    1.03154384898249    1.02071079631411
C         2.74190458159415    1.99772850560315    0.11951807655391
H         2.76758138065295    1.33929632652439   -0.73516154113071
C         3.66010968782972    3.02671453129483    0.23029924775673
H         4.40241966738957    3.18010501256355   -0.53777062213654
C         3.65916200416335    3.89646523358863    1.31940194142652
C         6.64116315652220    6.17853646433199    0.49640054291100
H         6.31320370294379    6.96520349821355   -0.19446233599906
H         7.58073859474810    5.75936085429174    0.12442360717519
C         6.82924864848665    6.75958934818072    1.90711891748417
C         5.43590831976193    7.10542023888308    2.44834821884940
H         5.49075868835036    7.37965525293320    3.50796656509423
H         5.02210037982513    7.96070431358715    1.89670898778329
C         7.67547120368795    8.02959464526601    1.84568363239807
H         7.21127604513603    8.77806664350699    1.20751516419857
H         8.66292591211883    7.80440216002452    1.45176613187136
H         7.78687767641158    8.45248908512374    2.84117962626129
C         7.49732950686015    5.72194342515535    2.81132843713140
H         7.58882568694820    6.10622828836214    3.82479012736875
H         8.49053902652001    5.48318894751077    2.43925149619620
H         6.91260350586406    4.80471642747478    2.84574192889953
C         1.45200903048953    3.99669362157771    4.90877301806149
C         0.24415055315873    4.64509104609255    5.14357026570475
H         0.03905054592948    5.57642382187340    4.62806039477817
C        -0.67950504208758    4.10457158820226    6.02000984402095
H        -1.61732634335686    4.60975307839496    6.19549428196251
C        -0.39774939674499    2.91490895536251    6.67126670631384
H        -1.11644417726929    2.49174435542870    7.35605574368396
C         0.80767539376738    2.26743936363314    6.44620915620710
H         1.02582285242499    1.34097771137893    6.95548468951026
C         1.73336206228955    2.80408784702655    5.57071280742535
H         2.67360815858572    2.30006617410901    5.39628143908306
C         4.20294240497005    4.50580669524250    4.64420145433902
C         4.63936182111065    5.49454015662390    5.51883121027493
H         4.06053976776361    6.40340700559219    5.62067265617188
C         5.81155064056343    5.32542800718722    6.23240271758472
H         6.14937512615036    6.10022587760594    6.90536622593403
C         6.55328956261441    4.16533281650200    6.07514015334935
H         7.46844232052825    4.03028862909983    6.63097072103253
C         6.12582571846257    3.18178653476634    5.19749198320327
H         6.70919715635644    2.28226241687267    5.07003275513580
C         4.95475748153632    3.34782164894013    4.47857778101656
H         4.63119089888772    2.58787255066357    3.78010176037216

