90
CSD_code = RICPOK | q = 0 | S = 0 | Stoichiometry = C38H36AuBF6NO4PS2 | MND = 2
Au        9.22978461529683    1.40989430243018    3.75062022212482
B        11.29505614475833    3.86998788008942    4.80885329147832
C        11.32707803001973   -1.64145050544012    6.22463336300901
C         6.92864027455533   -1.70840867580161    4.35878248806441
C         8.70018974585093    2.77003687172238    0.79735563208484
C         9.65062210847437    1.94382646008239    0.19862487893517
H        10.52960202694364    1.65640491287979    0.76133876091436
C         9.46533700155402    1.49789335842082   -1.09461761621520
H        10.20526046237954    0.86227309640210   -1.55666707174164
C         8.32333489124846    1.86008342200943   -1.79432787158403
H         8.17594537129972    1.50852452334081   -2.80428537511799
C         7.36853703601606    2.66370134764241   -1.19576549314796
H         6.47509760335396    2.93745410073355   -1.73703216467588
C         7.55086753145950    3.11958561457313    0.09967332364646
H         6.80160005754397    3.74348745109261    0.56602825944488
C         7.60570369611896    4.28377027021423    2.95897647540510
C         7.44500113406318    5.57086705332212    2.45193013810271
H         8.20055551282668    5.99563580764207    1.80468805494926
C         6.31571877292590    6.30007103101773    2.77467697592425
H         6.19380437688573    7.30132661326956    2.38815261976355
C         5.33962925036996    5.74389458659304    3.58673485967911
H         4.45625414762230    6.31504398369392    3.83143281101388
C         5.49494558208288    4.45986842926638    4.08265359270984
H         4.73358878330753    4.02502255284352    4.71120245547494
C         6.63009025430668    3.72834483892207    3.78063507860935
H         6.76693802307523    2.73481033980292    4.18665024136813
C        10.46322869768125    4.37021626904169    2.33605412135873
C        10.63712447825018    5.03026829399830    1.12026159090622
H         9.91226622296711    4.89711628457317    0.32802791870366
C        11.73497508787382    5.84338855352518    0.91206660446619
H        11.85415928977405    6.35923937029677   -0.02896771629192
C        12.68746664659754    5.96981671947715    1.90995347869293
H        13.56188676084998    6.58258306611335    1.74858205960068
C        12.52542617510147    5.29756285688630    3.10627613372522
H        13.28225284823788    5.38807861933363    3.87216552992499
C        11.40685679232599    4.49953935770968    3.36842731196522
C         9.98936816176704    4.09553988059453    5.63885315801437
C         9.48416907124645    3.08262884283918    6.48634569735470
C         8.23711961015666    3.22089775644165    7.07434049347907
H         7.85681880384469    2.41492977790350    7.68393356117888
C         7.46893756428639    4.36220261392036    6.90190281822589
C         8.01295542956850    5.40569390562086    6.16940140441694
H         7.46195547094784    6.33199787943276    6.07682864972641
C         9.24529704140844    5.29067870182822    5.54720565594879
C        10.26969564405547    1.85811753336268    6.85609429226701
H        10.95993510583945    1.54795106610140    6.07970136488595
H         9.59524437843975    1.03290817592199    7.07854021992938
H        10.85481791185157    2.06640187564060    7.75392211102244
C         6.12249862514918    4.47231183052594    7.54432284819203
H         5.56401132446605    5.31337497758831    7.14024860278688
H         6.23042608913792    4.61566051560139    8.61967641478839
H         5.55883977250719    3.55529457967247    7.38711021759749
C         9.78606262676726    6.51247850240519    4.85740603315907
H        10.86526245387208    6.57953391454141    4.95761337125847
H         9.34087072557078    7.40648097242710    5.28974020295933
H         9.54484441180740    6.50397278094132    3.79604344436656
C        12.58561119246117    3.19152589838409    5.37750198150216
C        13.15308188184381    3.65610431342138    6.58036285670490
C        14.29553873427207    3.06698188377535    7.09276118886037
H        14.71661353027742    3.44452012089442    8.01473934055743
C        14.91048030425717    1.99842557205618    6.45543488933132
C        14.36791821907032    1.55418598650541    5.26154656057840
H        14.83223280329741    0.72811417148325    4.74279933160741
C        13.23392699519332    2.13618392678057    4.71369705540786
C        12.71689563568308    1.55254784152749    3.43112249885902
H        12.17388227548752    0.62534449575224    3.62385926969700
H        13.54891732187157    1.30929709845692    2.77211433133246
H        12.05166565442289    2.24010882464083    2.91552200867623
C        12.56144226408265    4.83236072974579    7.30372621974363
H        11.52514587867001    4.64348709198000    7.57217673310304
H        12.58001729468023    5.72034060297861    6.67297208928531
H        13.12358781917831    5.04612066485569    8.20983684480905
C        16.13943832170563    1.35763499536383    7.02222791371644
H        17.02314292689567    1.69678297133282    6.48054850043370
H        16.08371822257886    0.27558120186995    6.92543408066424
H        16.26416079598728    1.61318104401294    8.07168500330122
F        12.24491655464561   -0.68773718969337    6.05056099655121
F        11.96737606322266   -2.80130443671611    6.34258386178771
F        10.70162606041032   -1.39235491493180    7.36642296851778
F         6.72769651535552   -2.93382407700035    4.79895962277068
F         5.72529746463844   -1.16085991312991    4.14603251129269
F         7.53874130201654   -1.75030986719203    3.17144231634115
N         9.30294863664535   -0.37933090405916    4.83780388202996
O         9.38357482527453   -2.85814257209945    4.85539227473101
O        11.09708492762527   -1.58101523774775    3.62033090441852
O         7.95303446872692   -1.21518167925835    6.80872015380932
O         7.18388671354781    0.66959922093174    5.44631678077392
P         9.03371329644167    3.25934698225790    2.51767692504596
S        10.19489329967807   -1.69997029606730    4.71642243581611
S         7.88083614317564   -0.57975969213229    5.54334014318116

