42
CSD_code = RICSUR | q = 0 | S = 0 | Stoichiometry = C9H17B2CoF4N4O5 | MND = 6
Co        1.72436914995892   11.42238540923724    7.40647854943079
N         0.42893492757584   10.16024597984200    7.02146531116756
N         1.77902729553347   11.60902124014524    5.56032009168198
N         3.04025301109509   12.66967926103083    7.78687725902461
N         1.66418768150256   11.23220437330185    9.24736176764156
O         2.55878510955985   12.47100144834445    4.88667254283622
O         3.70765473758307   13.40380783231188    6.87975204422604
O         0.94097949116308   10.33066985659978    9.91282878499309
O        -0.14395038255764    9.34282854768878    7.91037232900076
O         3.28811318802020    9.88658364860446    7.39406763055919
F         4.55219226503246   11.56575932955415    5.69866592986056
F         4.54547085656712   13.63593016115187    4.74532355083625
F        -0.85802436378943    8.90298382750581   10.05371341380862
F        -1.19492491720988   10.98371626053870    9.20609848369344
B         3.86312260681964   12.78665131356906    5.53620097735365
B        -0.35320678748490    9.89832703717708    9.29227440263666
C        -0.80540844530902    8.99862159352470    5.23901040143118
C         0.16799571184022    9.99762119120808    5.76226593746457
C         0.93959600487159   10.87388722116199    4.90405157901028
C         0.78410225548661   10.90665691422885    3.42375715236696
C         2.71070802577899   11.87972828914932   11.37307594537872
C         2.52209630458777   11.95004382861028    9.89733400269445
C         3.31274360999054   12.81410801643174    9.04179743386111
C         4.34076793980814   13.75366648811143    9.56747551210131
C         0.41489785256236   12.89606700423349    7.43548925406103
H         4.00228440962716   10.19118345490490    6.81078777759295
H         3.09709328543202    8.96982589893430    7.17778423309759
H        -1.39372579062347    8.61244129656023    6.06825742284056
H        -0.28676299224689    8.16705975078113    4.76285781045074
H        -1.46039903761340    9.45923132250157    4.50314045329698
H         1.61319773404457   11.46135288188230    2.99068486640789
H        -0.14520027897353   11.40998654268430    3.15941471962625
H         0.75546544736980    9.89908423062300    3.01559411964915
H         1.86859341257417   11.34932458064992   11.81159817223529
H         2.78432821536042   12.87811330469604   11.79736934050949
H         3.62353637902209   11.33506066221688   11.61216891114920
H         4.93697196290396   14.12972157624085    8.73953650552309
H         4.98141575710091   13.25539428157525   10.29118176986835
H         3.85746646899352   14.59661256863337   10.06008501084409
H         0.27066112995368   13.25599201151255    8.45063822183782
H        -0.54616162699079   12.55692494779642    7.05914560160005
H         0.77435239507933   13.71409461454359    6.81452477634984

