61
CSD_code = RICSIF | q = 0 | S = 0 | Stoichiometry = C15H30B2CoF4N4O4P | MND = 6
Co       11.72877283542617   11.52777613302340   11.24407579642574
P         9.80584671827572   10.52926826163915   10.25238112569126
F        12.20714663745273    7.77509751865768   13.64029249979687
F        13.55019425880522    9.60723021832373   13.63372966287185
F        10.09471724184401   13.22378610746659    8.86984413086880
F        11.18379049374560   15.21686492934233    8.78984742038923
O        12.57145163913318    8.85493072195568   11.64365096651883
O        11.22123098435637    9.84013722807737   13.48840894424718
O        10.86137186786172   14.21275288483509   10.83769223821944
O        12.41344334111090   13.29716808110317    9.12491092141060
N        12.68805756939649    9.99048224811546   10.93585712451276
N        12.53929344681944   12.08340872673464    9.68143414317957
N        11.06696017575693   11.03211823023130   12.89662013729484
N        10.84835924041277   13.11162001676024   11.60326466982690
B        12.41972261553871    9.01142736584274   13.12775041956454
B        11.13113543999405   14.00633310194353    9.38585142725505
C        14.34783764043741    8.87178759990180    9.50459152115676
C        13.48177406124770   10.01489819525865    9.90921522966911
C        13.41885142882650   11.26338781651776    9.18979971754010
C        14.27645994223913   11.57931697254031    8.01189483552873
C         9.70914128840603   11.72886413337324   14.82885695922762
C        10.34482079317467   11.93116200471474   13.49493272320699
C        10.22982905584939   13.15557177911986   12.74375606329620
C         9.49228422786697   14.35243644695818   13.23918472014008
C         9.72270672632844   10.23923583500649    8.42560278169462
C        10.83212254745897    9.34358138844873    7.88698470967892
C         8.24207013842343   11.46491753796889   10.58022145842819
C         6.98811577012683   10.94608376553693    9.88350932079947
C         9.40154368878401    8.80849609348009   10.83314654582890
C         8.62608772435905    8.68801237074220   12.14000749498817
C        13.30664964528233   12.38049054689188   12.14900327780575
H        14.38587934844875    8.15371905595209   10.32068351571039
H        15.35136785487906    9.22106792281061    9.27360922234568
H        13.94347705430550    8.37538177613810    8.62284464152161
H        13.86048283371305   12.43777738944949    7.48951946810386
H        14.34336901809157   10.72810688858528    7.33832826745024
H        15.28244042221851   11.83491365673501    8.34358040337355
H        10.13468205606524   10.84248819875546   15.29376328648042
H         8.63387348232406   11.58510143771033   14.72439257924463
H         9.87829632366259   12.59452328837714   15.46480076634811
H         9.34668576249589   15.04596751033470   12.41447561095648
H        10.07092110271967   14.85606424138235   14.01280008453101
H         8.53145611294572   14.06636594315697   13.66046655723702
H         8.75225365788369    9.77609007226662    8.22774108028042
H         9.74887854047004   11.20895096672979    7.93136980997484
H        10.59909706684871    9.04655749271222    6.86569963966787
H        10.94257972153824    8.44220088318194    8.48703693203545
H        11.77991102461919    9.87252249191173    7.87489644917332
H         8.10642530429550   11.45617240308116   11.66637710577112
H         8.41859264299477   12.49660643482299   10.27695845969345
H         6.11491289211672   11.45196897617725   10.29196544706197
H         6.85423641404219    9.87606359173415   10.02435937832803
H         7.02507974791006   11.15880199480056    8.81913918586739
H         8.84502592624421    8.31892990319849   10.02805759586393
H        10.35151855516040    8.28171009385285   10.95259662829919
H         8.41713929327690    7.63617396573929   12.32691500296587
H         7.67764180854905    9.21832973875441   12.10574904417551
H         9.21182380581100    9.05301781346770   12.97714649193464
H        13.12789570753720   12.48252535991075   13.21669811866519
H        13.49422445888828   13.36883322852529   11.73287864076950
H        14.19594287520335   11.76912301923252   12.01733159910902

