50
CSD_code = RICSOL | q = 0 | S = 0 | Stoichiometry = C14H20B2CoF4N5O4 | MND = 6
Co        6.56097537172352    2.26106920132130   30.50264134782623
B         8.13657226905316    0.34241166760938   32.43971316995035
B         5.05095404189964    4.25594857113985   28.48694610427510
F         8.45716033416038   -0.57624251724429   33.37585621859684
F         9.26703412096286    0.89820596138865   31.84790036943680
F         4.96209592692125    5.19862740292171   27.52077773983025
F         3.81690952100787    3.84394052907677   28.93817345209806
O         7.36861553832650    1.43826456400106   33.10823850695513
O         7.33524420246325   -0.33876327969553   31.37616064110569
O         5.76839482389335    3.07721428364830   27.89823754794614
O         5.80787382244565    4.85916928621194   29.63318590438631
N         6.11768159553515    4.04573751393138   30.64920997930399
N         6.93863457523628    2.42184895820751   32.30780113681011
N         6.89921379841472    0.44456584571676   30.38154913902674
N         6.07675144951079    2.07723469574664   28.73189559825749
C         5.92338255523647    5.96784758391081   32.17221186463119
C         6.21807591525464    4.54406150491093   31.84253684017084
C         6.67474864994557    3.58170548249303   32.82298628956905
C         6.83700624892508    3.90291959212334   34.26929683225532
C         6.72743136584838   -1.55190107576421   28.95473942594444
C         6.59993962406228   -0.09488720349277   29.24148910881723
C         6.14113576262630    0.86922541439285   28.26381033097060
C         5.80548797188373    0.50805946538023   26.85683435326868
N         8.53273932108758    2.77129346817611   29.93840127114202
C         9.21671148993897    3.70356556467869   30.59710738214934
C        10.55589039810127    3.96591886269032   30.37006234249571
C        11.23205332986915    3.22919349094771   29.41334268138844
C        10.52231744179557    2.26723269412274   28.71610138454116
C         9.18445266096611    2.07444592031915   29.01078936069305
C         4.73018764193481    1.73420881881727   31.08221598475305
H         5.40081084658242    6.42104103796227   31.33284976336607
H         6.84407416660083    6.52391657703718   32.34731980189854
H         5.30970730385277    6.03006243319552   33.06785138515531
H         7.42717980672759    3.12091071131715   34.74135899889864
H         5.86216939008722    3.93923683738767   34.75447947472444
H         7.32158619619476    4.86739043734579   34.40187425810914
H         7.32751005289971   -2.01481103482593   29.73471342377237
H         7.18591666034904   -1.71862667257194   27.98282725598649
H         5.74316843350589   -2.01912511199390   28.95445227349150
H         5.28709142255368    1.34496637544220   26.39437159616914
H         5.17432478798252   -0.37724529547737   26.83345984823800
H         6.70871840778305    0.30134951114900   26.28324273239289
H         8.68402532836414    4.27087471601008   31.34616953687659
H        11.05641815079496    4.72951919431148   30.94369089545576
H        12.28006595651500    3.39790481545766   29.21887973113840
H        10.99586246676909    1.66354266272571   27.95848921846613
H         8.62557703315136    1.32167171435843   28.47438236753844
H         4.18798580247443    2.59151798710098   31.47347713018234
H         4.78469127419121    0.97279810510465   31.85870387741189
H         4.16014474359380    1.33758273127600   30.24569412213124

