75
CSD_code = RIDDEP | q = 0 | S = 0 | Stoichiometry = C34H35NP2SSiZn | MND = 4
Zn        8.43089402921786    2.98418249137270    4.78264920747431
S         8.93463969574517    5.07958286113439    3.50940140540378
P        10.62183726285538    4.06053962762754    3.36331414822276
P        10.70637934761138    3.60086771485072    6.21412863137303
Si        8.46560530908940    3.91433800818414    8.12161387101401
N         9.15100635151661    3.67604539529834    6.54110279003827
C        12.00038052540291    5.22878134663308    3.12200832069755
C        11.81009942653279    6.60242912328808    3.14321992323633
H        10.81237473025346    6.99660931279531    3.27545973806463
C        12.89618181309122    7.44432715499050    2.98446871716777
H        12.75051461168144    8.51436432434217    2.99758645922052
C        14.16452787340468    6.91797853196646    2.80797741739899
H        15.01070951616160    7.57829392055911    2.68691766492667
C        14.35292735044242    5.54445603503654    2.78030856115626
H        15.34246689951236    5.13554461945710    2.63560459658489
C        13.27272071419410    4.69861021561426    2.93678129013137
H        13.40370871940502    3.62361657788011    2.90894429821435
C        10.60776462297719    3.13215252569745    1.79778148722443
C        10.82334373270757    3.81859018767468    0.60789387101311
H        11.07713294989611    4.87044045064401    0.64073250107166
C        10.70867837789935    3.15540632368956   -0.59896102746292
H        10.87999287819094    3.68668996188315   -1.52368539299622
C        10.36662519296046    1.81202621252671   -0.62149957779222
H        10.27321093574133    1.29657497873083   -1.56602299364662
C        10.13600776487976    1.13209976969204    0.56321925242512
H         9.85848798691653    0.08843094938595    0.54548469405751
C        10.25212539902066    1.78982884198252    1.77470289171348
H        10.06752051202205    1.26640538067159    2.70453700920677
C        10.85733983144101    2.83571954492682    4.62283585970159
H        11.86183748347534    2.40096758057321    4.50403695770835
C        11.52826808523158    5.21856685752913    6.30151412481244
C        10.75584966382583    6.37118653776390    6.31002523973255
H         9.67896133826048    6.27742959752950    6.32462780436072
C        11.37121676439059    7.60987150625381    6.29751446253361
H        10.77261551912832    8.50899285990334    6.30850861260543
C        12.75324268473505    7.69625014236577    6.26675271936819
H        13.23417791424912    8.66340107772739    6.26094722655576
C        13.52500710773302    6.54471046153802    6.23357345252792
H        14.60247635215350    6.61539319992811    6.19514105843550
C        12.91582431299758    5.30513622443753    6.24354434602267
H        13.50767923220471    4.39867224512735    6.20812507359039
C        11.58245659184683    2.52686635049268    7.37755094727391
C        11.34513942636169    1.16429827779858    7.23364766333267
H        10.74383383868302    0.82366712780288    6.39940555252785
C        11.86639929335995    0.26943934779615    8.14846326839841
H        11.68588330612814   -0.78943513586664    8.03433099622502
C        12.61468652314079    0.73505945718145    9.21875213753379
H        13.01949388977110    0.03822942672575    9.93787880576571
C        12.83748711967392    2.09363078882708    9.37354507604783
H        13.41332869195777    2.45472603417252   10.21346674101574
C        12.31884665395019    2.99252749150394    8.45794715910029
H        12.49060299539754    4.05377179616546    8.57838372145175
C         8.60260352933965    2.30325241824995    9.14324264931849
H         8.37483283197555    1.42956623255013    8.53991064761247
H         7.90936323571605    2.32004107868563    9.97765825013118
H         9.60201768846568    2.16882405390010    9.54719372809114
C         9.28583495841381    5.31671519966598    9.12566760170058
H        10.36914452303501    5.24787178136536    9.09103808822023
H         8.98337138574597    5.25446570864063   10.16615458202072
H         9.00722350312147    6.30031256157862    8.76149929669700
C         6.64069450787702    4.31430140788040    7.75573343264695
H         6.53595537106438    5.25936083144850    7.23259631399094
H         6.06730276024736    4.37808908023406    8.67359967578899
H         6.19216918644413    3.54600076842492    7.13148086964216
C         7.24209447943553    1.46979710111238    4.27144229125773
C         6.74011854425951    0.59060812807640    5.23071183709715
H         6.96618407021978    0.75898867086115    6.27606656795594
C         5.95357277176790   -0.49563820852118    4.88239386484978
H         5.57944307201244   -1.15772313639782    5.65103489999122
C         5.64619849871956   -0.73362132787539    3.55467699972078
H         5.03319632028827   -1.58021535341762    3.27944935642549
C         6.12948218529501    0.12478351894091    2.58376511358972
H         5.89427146882932   -0.04787624181113    1.54275318675931
C         6.91387785823878    1.20975394547933    2.94094894807652
H         7.27492810004729    1.86835013911126    2.16129303666069

