91
CSD_code = RIDDIT | q = 0 | S = 0 | Stoichiometry = C34H48N2P2SSi3Zn | MND = 4
Zn        1.59553482484161    2.11448827697049    3.60327620272922
S        -0.04233568887334    3.66721467214506    4.55842809851439
P         1.64120037939208    4.25881608538905    5.41481092524183
P         2.91511272584543    4.39135426946388    2.82242611894421
Si        2.08703341304637    2.91670726613251    0.34586893729027
Si        2.98261558662241   -0.68384700675104    3.74428641786343
Si       -0.01764062597209   -0.39245049643184    4.29142545866864
N         2.12677319962717    3.23357391206145    2.05822467879568
N         1.53865961367206    0.25109504509252    3.87881741802728
C         1.81173914294811    3.41351752184262    7.01708015241921
C         2.36421949793859    2.13820347055653    7.04612616687592
H         2.74633686587038    1.69486993617308    6.13383541327014
C         2.40603215008441    1.43707301084974    8.23702511976509
H         2.83582983394041    0.44671997046856    8.26187479226765
C         1.88929437656668    1.99848987391782    9.39373515641002
H         1.92037078600259    1.44744818187017   10.32201201267287
C         1.32050339439050    3.26152520194888    9.35973838334126
H         0.90648733960775    3.69421988563981   10.25866901981319
C         1.27448826989970    3.96909910472096    8.17257593372949
H         0.82316270724323    4.95173557301224    8.13528030127995
C         1.49322174629153    6.01985519510757    5.86620296712460
C         0.34347929807577    6.74909368463513    5.60043427857997
H        -0.50190505219767    6.25496288195264    5.14355417308132
C         0.29514544088197    8.09205834364916    5.92908858878013
H        -0.59959057609667    8.66113115613290    5.72499878854163
C         1.38830537990603    8.70455323401304    6.51820754003116
H         1.34799467150862    9.75372865583608    6.77143654232217
C         2.53509573255786    7.97386754860026    6.78964968668253
H         3.38505665054625    8.45127256666205    7.25523989057826
C         2.58943814234646    6.63280638391721    6.46420902896132
H         3.47616174088806    6.04894220104913    6.67821267619542
C         3.08950711066549    3.82102894612974    4.49363338026387
H         3.96766176043018    4.26830958378510    4.98036026939218
C         4.57480949556382    4.69165186856561    2.15867998361704
C         5.62801195648910    3.89409986625253    2.58846421220572
H         5.45944564780839    3.16769382533975    3.36968434626385
C         6.87946580339336    4.03126282343375    2.01553219503221
H         7.69687034258959    3.41083380520302    2.35247777770647
C         7.08311278849452    4.96034346291391    1.00815770148237
H         8.05959480036239    5.06554709051825    0.55895207138556
C         6.03320169948065    5.75391900094221    0.57358089480948
H         6.19081424358669    6.47673559966400   -0.21367104626102
C         4.78057711667544    5.61851376308077    1.14356015011293
H         3.95895751957116    6.23697670478834    0.80864410039270
C         2.08128760941264    6.00407676436967    2.69175323556336
C         2.73216538197239    7.15533963445715    3.12473148343512
H         3.75156019102045    7.08938824703698    3.48452027850205
C         2.07729515595120    8.37059702249626    3.08589018727661
H         2.58275344335671    9.26612003309223    3.41698125704096
C         0.77044805072998    8.43811795286456    2.62692537146498
H         0.26116539192180    9.39016112496770    2.59857090254141
C         0.11746148781843    7.29039542699744    2.20939149000034
H        -0.90283583731545    7.34463067044752    1.85944073888044
C         0.77071076281234    6.07119023220597    2.24208568791455
H         0.28006468714523    5.16195793883707    1.92509957028699
C         1.56694340350735    4.44389050063712   -0.68106006355988
H         0.51125604364318    4.66883454011525   -0.56740686631691
H         1.75024401376325    4.26132579792329   -1.73482702905592
H         2.12339091021679    5.33187595355421   -0.39780111034035
C         3.79373531823868    2.31658877341386   -0.27192828062437
H         4.54551791741962    3.09896131314577   -0.22232839337891
H         3.72797245161110    1.98862409184718   -1.30425257345870
H         4.15100573474164    1.47804171017551    0.31816431653899
C         0.80549661170537    1.52079541944908    0.18573541958184
H         0.98150057201654    0.75790132425344    0.93999968037655
H         0.85541580696203    1.05329698155376   -0.79141722049160
H        -0.20581153826413    1.88938197611911    0.32406726962390
C         4.43119901550556    0.53230273738770    3.49234155344006
H         4.15597968299503    1.28794879195657    2.76227236505474
H         5.32175381655059    0.02935691063558    3.12977388760327
H         4.69477279707191    1.03359980135958    4.41869170576289
C         2.96736087899202   -1.86565394945174    2.24268462363860
H         2.24924499391481   -2.66491552938861    2.38171073680228
H         3.94118359050173   -2.32182703405746    2.09319731882586
H         2.70376441416581   -1.33965613996150    1.33045217271007
C         3.35807487416735   -1.68235961403687    5.33275457830618
H         3.51983116034127   -1.03196449585883    6.18647933812570
H         4.24810810942171   -2.29115262917306    5.20862313668571
H         2.53696164713859   -2.34457470683283    5.58014218488021
C        -0.17091606776170   -2.27340031043046    4.03574515570292
H        -0.06346272442915   -2.54099027803389    2.99135388933801
H        -1.14642171424439   -2.61557017087099    4.36423055098620
H         0.57613998328248   -2.82019696035651    4.59680520532815
C        -1.33461139665881    0.42176297115796    3.17315696062945
H        -1.14783753276446    1.48765373268083    3.07096258450827
H        -2.33042662331290    0.30231356137023    3.58726500336200
H        -1.33726837893442   -0.01161626626187    2.17831943963270
C        -0.40761544839534   -0.00238330959969    6.12501806651390
H         0.33798618396030   -0.42976452127963    6.78800977726649
H        -1.37625679325756   -0.39384723965591    6.41866039297344
H        -0.42163929112710    1.06999927147627    6.29580711492266

