96
CSD_code = RIDGUJ | q = -1 | S = 0 | Stoichiometry = C37H49FeN6S3(1-) | MND = 6
Fe        3.49317984197738    3.43382038765643    9.56925284737634
S         5.87953107633219   -0.34345069375642   10.68163053720052
S         2.40614610261611    5.57218405532080   13.50051384666400
S         6.58335925094657    6.24253068726180    7.54705173698570
N         2.20581985962882    4.63993713301412    8.93365297947092
N         3.45083001715478    2.51840906944754    7.92908290025872
N         2.06614324829968    2.30275521637028   10.19404857250973
N         4.75947558839496    2.13916004726331   10.22278646071218
N         3.46837649778667    4.34112831896415   11.26771129588097
N         4.89737310351608    4.55681337604610    8.94027420149652
C         1.08120271025217    4.19159361978827    8.34814754622596
C         0.00550747003557    5.04535159694465    8.14021768182478
H        -0.93199817696501    4.68797122836557    7.75153063298064
C         0.11124153011932    6.39432386719406    8.44372607245075
H        -0.72596974706651    7.05570055918222    8.27969900791809
C         1.31203276254786    6.86079652502627    8.95665418212128
H         1.45873572573005    7.90290143221198    9.19036409639677
C         2.31679226013076    5.95173185359939    9.19466040324743
H         3.25813246029889    6.25640771881466    9.62309386920246
C         2.27784973208761    2.13481195001805    7.39574097941157
C         2.23936133913663    1.18202639487493    6.38709675021889
H         1.30727736580870    0.78621696863790    6.02249756623150
C         3.41589540432221    0.69501428289672    5.83786456640300
H         3.38494988346187   -0.04791409991408    5.05525145781350
C         4.61939948324342    1.18654447870012    6.32034735133962
H         5.56390738665993    0.86357244029915    5.91325620232635
C         4.58726973668772    2.07789760939499    7.36802279539264
H         5.49457791978842    2.46127548636747    7.80676635008134
C         0.98991302229014    2.03730807080698    9.42974693707012
C        -0.04389143605245    1.23157139348716    9.87806189344087
H        -0.89860239962041    1.02904342525995    9.25368702346613
C         0.01723825960911    0.67572344919841   11.14646184938464
H        -0.78230984095953    0.04641170324455   11.50720003820631
C         1.12888286989659    0.95083628254727   11.93020186992542
H         1.22787864944535    0.54425290652377   12.92369323480409
C         2.11828708062146    1.76047467043189   11.41795246643610
H         2.99886529083365    1.99992025039585   11.99193288622824
C         1.00872030903854    2.68968052154848    8.04822429444260
C        -0.24016213525304    2.35808705174399    7.21350815763059
H        -1.12222666790740    2.68400426410220    7.76771194602799
H        -0.32790024994426    1.27590066985540    7.10412857510041
C        -0.25298686256618    3.01404474892641    5.82735752712757
H         0.08729004848928    4.04470742560304    5.90779924075337
H         0.43989352891121    2.50680493235456    5.15634276074796
C        -1.65165236311656    2.97849848792246    5.21194694380697
H        -2.36380348175078    3.45738549111032    5.88936519644243
H        -1.96143525415347    1.93625361627926    5.09676804496181
C        -1.72142196964217    3.67324327883592    3.85166931116840
H        -2.68277766398937    3.44143998123148    3.38521367913966
H        -0.93644652250163    3.27775773012240    3.20324222282494
C        -1.57945901553289    5.19060022822573    3.95195663819170
H        -2.34368903049453    5.57938913021279    4.62963223079283
H        -0.60497343971822    5.44400210708519    4.37176094194955
C        -1.71979710694476    5.87185665349672    2.59320561431145
H        -0.96777975869175    5.47033213764064    1.90986689840616
H        -2.70272900692870    5.64680233927098    2.17097030139744
C        -1.54683576737666    7.38485831599579    2.69938902968844
H        -0.56659365568393    7.60356152367044    3.12877730905019
H        -2.30104509664577    7.78764162181185    3.37986951109057
C        -1.66772091695319    8.07902802884078    1.34539149983647
H        -0.92140172767126    7.66747766648539    0.66169763030983
H        -2.65325332346620    7.87495232401750    0.91899567327506
C        -1.46739709752607    9.58796549690149    1.46034955014189
H        -0.48209179485804    9.78678722481540    1.88790199647473
H        -2.21218396156884    9.99980541581295    2.14569334994620
C        -1.58080979938227   10.29172936416295    0.11056744211279
H        -0.84354588319323    9.87188515074358   -0.57794369219944
H        -2.57078981056916   10.10555000070989   -0.31348032045571
C        -1.35671454020356   11.79683854226292    0.23210611456224
H        -0.36585833436662   11.97887060155272    0.65454842057722
H        -2.09103684875436   12.21624945727792    0.92409144334752
C        -1.46797508834194   12.50884171121575   -1.11359683192689
H        -2.46287334776740   12.33821839858787   -1.53244623867677
H        -0.74078458184463   12.08200177764645   -1.80851604369531
C        -1.22289529045557   14.01033059483680   -0.98709146915720
H        -1.95154747880597   14.43757231095848   -0.29390507204144
H        -0.22962333555068   14.17766022799633   -0.56401885079600
C        -1.32466921643117   14.72743149019219   -2.33088519361624
H        -2.32036297901655   14.56704041095506   -2.75182482413461
H        -0.60028880646616   14.29556979764628   -3.02568670367789
C        -1.06647997994232   16.22648814406465   -2.20072715298097
H        -1.78887334801165   16.65756444552329   -1.50326449529715
H        -0.07009876534020   16.38480945020247   -1.78120411038231
C        -1.16875974541846   16.94760954862551   -3.54229343875640
H        -0.44847774192881   16.51432801933774   -4.24052193643310
H        -2.16659178140868   16.79289234193094   -3.96029806847758
C        -0.90423822416733   18.44558086337419   -3.41194007335618
H        -1.62152924792185   18.87822628871890   -2.71056182300513
H         0.09511929739436   18.59982510815811   -2.99855375452607
C        -1.01314068043499   19.16097155773839   -4.75291301487409
H        -0.81911774317920   20.22501852285935   -4.63769417961120
H        -0.29323244516429   18.75534360340618   -5.46064189570922
H        -2.00981300812740   19.03692046212153   -5.17137451369647
C         5.23591690734276    1.08662816742070   10.41617393336968
C         3.01592997040420    4.86216970385931   12.21448730954850
C         5.62206053247515    5.26871186007891    8.35759186984295

