42
CSD_code = RIDJEU | q = 0 | S = 0 | Stoichiometry = C20H18FeO2Si | MND = 8
Fe        3.48891282621217    7.03902467093365   11.94701581738764
C         2.63040670889866    8.44728174201347   12.51026520796994
O         1.98444699214285    9.32800717585643   12.86915539771864
C         1.94133850629923    6.53315291927523   11.33157946840783
O         0.88420785949296    6.23541493073415   10.99249171446716
Si        3.80124798282855    8.12770363112661   10.00489027265099
C         2.30163993149488    8.92325989088268    9.09832214693986
H         1.82374285519224    9.66973885407300    9.72423256134374
H         1.55401711774637    8.18158260931724    8.84007931714362
H         2.61574800857481    9.41140883263847    8.18114188839285
C         4.10084512831741    5.08321828591209   12.80612894089070
H         3.49142545352910    4.20065790802769   12.91298809188005
C         4.29665103129091    6.07680586292232   13.78634399984424
H         3.87122105807581    6.08515536443887   14.77631834792624
C         5.26779510614567    6.98621843949309   13.29220826340645
H         5.72154084105325    7.78342722629375   13.85875176900087
C         5.69200664573218    6.53421504604305   12.02380398000033
H         6.49549667293849    6.95009698948268   11.44034724405893
C         4.94597231329272    5.37516193269803   11.70589027919385
H         5.10898382781135    4.73933659378186   10.85151037365816
C         4.51233057949529    6.80361351734671    8.82764123075142
C         3.68370718897588    5.79071867547830    8.35462281182290
H         2.64259547609251    5.78796952799662    8.64200845279292
C         4.16967396232678    4.78993866853444    7.53398309401522
H         3.50814332663449    4.01395769679044    7.17580737352152
C         5.50744151826165    4.77963868904824    7.17365769199592
H         5.89206796890198    3.99869194939343    6.53368647392044
C         6.34897802699661    5.77457464453201    7.64111185346727
H         7.39445057863362    5.77076140127118    7.36637706868040
C         5.85290479312958    6.77262122023042    8.46130552542845
H         6.51782179065463    7.54444895103664    8.82146330922405
C         5.07300558989343    9.54061322082429   10.18019851893781
C         5.67922194048418   10.08518455765287    9.05259806064192
H         5.42656382418136    9.69411813286586    8.07757771518523
C         6.59622149721480   11.11541644639826    9.15981672534047
H         7.05904452106591   11.52194391395750    8.27168883511789
C         6.92029640915967   11.62747092438890   10.40501993892489
H         7.63744441869408   12.43086322022297   10.49214973335208
C         6.31510883008778   11.10801471432379   11.53701338572133
H         6.55631600505882   11.51021681066391   12.51086047134911
C         5.40186246490998   10.07569370979830   11.41968600455431
H         4.92285242208723    9.67566050130164   12.30286064297522

