63
CSD_code = RIDKAS | q = 1 | S = 0 | Stoichiometry = C23H33Cl2N3PRu(1+) | MND = 9
C         5.18655584984545    1.46545523534110   17.24236410914848
H         5.50664085017173    0.64501559145535   17.89353391074087
H         6.01025328877350    2.18404905224193   17.16271395104447
C         3.36200475824313   -0.15108383472218   15.91703301361037
H         2.89925087886710   -0.49798130415542   14.98954567596488
H         3.59602699056421   -1.02674883081436   16.53127585659560
C         4.14315887447617    2.29837911114449   14.80295305966779
H         4.91054809925439    3.06711982255154   14.66646038125712
H         3.71602217272615    2.06180361986125   13.82504678928717
C         2.00868223548190    1.84209525180689   15.83006458406059
H         1.68418278157693    1.49948260666366   14.84812474356439
H         1.17057818067473    2.33649769045021   16.33000959462861
C         3.55392523694126    3.25072983798679   16.92960933953503
H         2.74138699354853    3.77137041910970   17.44672432740115
H         4.40074056904293    3.92874275351667   16.79334813084948
C         2.86843020479888    1.11876538002157   17.90543281767550
H         3.21209431877562    0.26093868822872   18.48982850633453
H         2.04061535963552    1.60973534459010   18.42668001673214
C         4.83575629354838    1.62862092157763   20.16037040243898
C         6.19928655121808    1.36935984786366   20.26569229122251
H         6.90254020472539    1.92392997999658   19.66146170903162
C         6.66396093767795    0.42162097480767   21.16074647522629
H         7.72369181813517    0.23494754528700   21.24053145105859
C         5.77371662555875   -0.27348297733546   21.96252266509322
H         6.13736640374734   -1.00754190660094   22.66409187751433
C         4.41690942648794   -0.01033075785665   21.87464220748620
H         3.72070791356572   -0.53529847704295   22.50954754105280
C         3.94967125545295    0.93637453972346   20.97946442892280
H         2.89161400278353    1.15069046170327   20.93579649947908
C         4.33298409239418    2.66702300237067   19.19222467897983
H         5.09273272909782    3.43975099759090   19.05006642976441
H         3.42741336552038    3.13572831760362   19.58544420908760
C         7.07320810873079   -2.51052540219851   14.33528773694936
C         6.89527914144313   -2.36018804596925   15.72336877827430
H         6.15890542416821   -2.96249784282645   16.24117134015217
C         7.72934025566055   -1.48959762997578   16.47198461142004
H         7.62279834253486   -1.44108785505458   17.55139618149360
C         8.76203872504143   -0.76662700051177   15.84387829529717
C         8.96918454314552   -0.95541937662588   14.44504628962436
H         9.80420744249802   -0.45495114864813   13.96615149814159
C         8.14417167610189   -1.80389903297568   13.71094432705296
H         8.33731731423721   -1.96746478733379   12.65576231490101
C         6.26263371409746   -3.49451869360702   13.52846517976809
H         6.31850330264789   -3.19583877355436   12.47599220063501
C         4.78819624068387   -3.52007529503914   13.93005805620168
H         4.64791113274691   -3.95958849499019   14.91494352396995
H         4.22852914288916   -4.11625741311845   13.21511813027099
H         4.38370538283944   -2.50876680950325   13.92528369688629
C         6.89761977229486   -4.88272736701558   13.67544067281925
H         7.93530822420170   -4.87158231001185   13.34926725991526
H         6.35390673232686   -5.60104203457827   13.06838258437556
H         6.86472476298019   -5.21092405736717   14.71252566164672
C         9.68463898433397    0.12111796088529   16.61905789796447
H        10.71233089420159   -0.22424715594112   16.51122272752716
H         9.42504334566024    0.13293411583766   17.67520635885525
H         9.63376226242457    1.14097131198775   16.23479128649265
N         4.00938969604867    2.11887305523762   17.84087360085740
N         2.42609238416258    0.70069428204835   16.62726001308295
N         3.09789934466632    2.78588124714237   15.67781636939311
P         4.92945459291755    0.76594212609337   15.51349590368929
Cl        7.32954353045499    2.02832015333304   14.83400533373797
Cl        5.19781630951132    0.01228517366273   13.03015001570917
Ru        6.79769001103354   -0.28625180437327   14.78950047842951

