83
CSD_code = RIDZIN | q = 0 | S = 0 | Stoichiometry = C34H46Cl2Zr | MND = 12
Zr       -2.15014615285074   -9.73325852510768    0.35908666553603
Cl       -4.37619211795054   -9.28799861080914   -0.22854100189535
Cl       -1.79767419734260  -10.56243927452703   -1.80604306402282
C        -0.62738054514006   -9.89253582696949    3.43239454146824
C         0.23237250255889   -8.86137521082115    2.65596480725731
C        -0.54042853560466   -8.32089596310346    1.47346633627723
C        -0.13964571916894   -8.40282974745351    0.10381875092827
C         1.14403007940512   -8.89985306953011   -0.50947862688329
C         1.48220188491183   -8.01214765502212   -1.71160445607706
C         0.33077854172505   -8.04545969262865   -2.71431808332793
C        -0.92016199300513   -7.37287399157078   -2.13977382859790
C        -1.09257191599891   -7.69845802380912   -0.68213574006280
C        -2.08641801417954   -7.18870585356353    0.18330107318541
C        -3.19543453860353   -6.23900332562185   -0.17834787640106
C        -3.73131316377761   -5.54563734079733    1.07639683846464
C        -3.91287406577539   -6.56365575154920    2.20018194365369
C        -2.54349077014241   -7.04912522261685    2.68269932971104
C        -1.77219108698991   -7.59430854626665    1.50941151706644
C        -1.45981699840304  -10.71644948271681    2.48891793922186
C        -2.88233767876498  -10.79475661071920    2.40926119866375
C        -3.93535949390930  -10.27050270941852    3.35172143697119
C        -5.08299574562346  -11.28410924881168    3.41265886090646
C        -5.62677596165109  -11.53752099744736    2.00799130101608
C        -4.59454889713964  -12.26932659594231    1.14418865425007
C        -3.21243980711682  -11.72750914180818    1.38376606108699
C        -2.00592972377985  -12.20759963663586    0.81892579956408
C        -1.83737883130437  -13.33796780974655   -0.15557100293016
C        -0.36583582254844  -13.46261225840595   -0.55454514059024
C         0.52516821263739  -13.42277094071150    0.68574497074564
C         0.50381480020262  -12.02538699110885    1.31288067283335
C        -0.92359991595749  -11.57702928094318    1.48672815609655
C         0.73942104502576   -7.72341304502206    3.56697670975281
C         1.48996906850112   -6.67273943048438    2.74404352355338
C         1.97375777975498   -5.52781796588803    3.62767223041196
C         2.88322051273445   -6.05464448117239    4.73237186626181
C         2.14962778830096   -7.10509254904022    5.55889015024364
C         1.65915916643357   -8.24723769202716    4.67214238923934
H        -1.27208944112744   -9.37337747532574    4.14525549139872
H         0.03334286660921  -10.55070629350839    4.00577654677712
H         1.11418614477661   -9.38561589660534    2.26784974036343
H         1.03357426962534   -9.92983301357597   -0.87615973812492
H         1.95970215357263   -8.87452327818752    0.21881588485028
H         2.39872971170907   -8.36790488805200   -2.18609697161390
H         1.64797715590733   -6.98692421477587   -1.37215957958404
H         0.10225633944448   -9.08520402681865   -2.95538697798588
H         0.62166856359292   -7.54129241873639   -3.63769074171383
H        -1.80302839206981   -7.67833589237054   -2.71260880895627
H        -0.82904025209751   -6.28352014038763   -2.23936571757433
H        -4.01317830098531   -6.77581307444344   -0.67186965711885
H        -2.82130929987461   -5.49505484553423   -0.88902905333206
H        -4.68132190652462   -5.05979808860962    0.84924500619496
H        -3.02783357556832   -4.77469684773334    1.40122019211264
H        -4.49390759519894   -7.40821157126920    1.81493345599480
H        -4.46023470288397   -6.11520369818043    3.03202255529555
H        -2.65942217112320   -7.78698177096470    3.47996602648428
H        -2.00193411037142   -6.19317713108584    3.10564633208866
H        -4.34600598190896   -9.31503914150970    3.00351973946428
H        -3.51523910923355  -10.12123303925677    4.35117294169514
H        -5.87738952168966  -10.90058323504990    4.05568171950319
H        -4.71956251501597  -12.22145495567694    3.84049374030115
H        -5.87247427466718  -10.58014111092859    1.54416400304209
H        -6.54099663075300  -12.13146829610979    2.06093288479592
H        -4.86876394705932  -12.18695488299085    0.08613212664586
H        -4.59409822282682  -13.33739583901843    1.39691739766342
H        -2.45659488221883  -13.18634666939555   -1.04528744921981
H        -2.17033865909813  -14.26893476938974    0.32098182306744
H        -0.10534925140095  -12.63420008287752   -1.21867291608916
H        -0.21091445087039  -14.39572818108952   -1.09884162970142
H         1.55042457171427  -13.69048589506315    0.42293105734764
H         0.16073896704679  -14.15275510314533    1.41223938443403
H         1.06820919209700  -11.34480551572132    0.66681357495815
H         1.00593028573706  -12.04588260322301    2.28564435492666
H        -0.12247180872599   -7.24133778551136    4.03815909943002
H         0.83773331773356   -6.28484809575990    1.95996589083318
H         2.35032861179251   -7.14250565334853    2.26130628602959
H         1.11302368967061   -5.02612192615451    4.07626549538481
H         2.50864357485107   -4.79395549532111    3.02139007168600
H         3.20713445950583   -5.23359827598779    5.37516610350614
H         3.77440900133151   -6.50170348208098    4.28580569196835
H         1.29383260593119   -6.64080342166996    6.05488526296778
H         2.81046016245548   -7.49890777171504    6.33408343920859
H         2.51865711525458   -8.74819885010662    4.21962413692872
H         1.13185655347395   -8.97608685590812    5.28961688008942

