90
CSD_code = RIFBUD | q = 0 | S = 0 | Stoichiometry = C28H52ClN4NbSi4 | MND = 5
Nb        6.47275582039113    3.60104244906237    4.63918080911219
Cl        6.47271394924089    1.28915894662110    4.63967332068729
Si        5.74403516355353    2.29779856728378    7.79115192512586
Si        9.60062807635183    4.83642031465675    5.42310575108832
N         5.79683658543515    3.47549448100644    6.50981947267721
N         7.87638174773377    4.72383252953015    5.47594091546080
C         6.99963140286023    5.51199860305202    6.17901935158421
C         5.88549718422747    4.83164548283115    6.75307242498853
H         4.11698926122932    5.05258947048214    7.91812635599047
C         4.96459778276278    5.56987440240681    7.49057005637700
C         5.10484561286340    6.93777944249406    7.67058875727150
C         6.19455822935240    7.60486460477817    7.09369496304077
H         7.96783385720116    7.38884356866430    5.90634667578706
C         7.12401878330500    6.88608818294393    6.35924075795680
H         9.85391495444280    5.73632712445841    7.75797562946122
H        11.35405532859762    5.00839765730852    7.21367679988869
H        10.03392058288411    3.99395239616457    7.76694701462795
C        10.27523568511291    4.89635002756008    7.21310147391999
H        10.36728523368456    7.22054954985029    5.09106531752958
H         9.63810442229934    6.60195113133606    3.61607983272188
H        11.26884602294741    6.13066593858517    4.06254635036088
C        10.27948990586960    6.34455541249118    4.45442623997968
H         9.44913980602452    2.37350572040822    4.92931481620810
H        11.08672946565881    2.95251781108821    4.62212167088510
H         9.80215251275306    3.28542090548912    3.47073331723455
C        10.03544613843410    3.20470800051665    4.53003048329792
H         6.04563245698862    3.99447844076272    9.63430463393954
H         5.74641694070456    2.39386191682721   10.28804303509083
H         4.41728738165480    3.34524543415129    9.67242513514568
C         5.45854570390526    3.09035756958089    9.50834681753572
H         8.21084142035435    2.18834724212467    7.33293369120564
H         7.49905791217218    0.59007318355953    7.20041805137452
H         7.84255827708095    1.26015982677759    8.78736598726787
C         7.49442336417409    1.50265826546506    7.78826585128898
H         3.38138446567256    1.40688044671825    7.59545026761302
H         4.49342458714035    0.16077806226199    8.11964342113603
H         4.45008789042031    0.63256454724635    6.43052047677417
C         4.37933729312422    1.00472895146247    7.44811007468966
H         3.31161451788844    7.02490085275660    8.83533250126682
H         3.62013279878335    8.47396213112774    7.87174927556439
H         4.55659685440598    8.17632470712896    9.33075977914046
C         4.08770099249355    7.69424869912387    8.47315145927474
H         5.49851201578435    9.61700492443205    6.84964748476963
H         7.25276127065487    9.43262674737086    6.75228339622632
H         6.43314985559934    9.34954270263230    8.31612837744935
C         6.35691727960038    9.08624500186406    7.26133510013966
N         7.14864524579284    3.47548569283929    2.76856650286817
Si        7.20135272196374    2.29779468905497    1.48723599645436
C         7.48659602800324    3.09043108389112   -0.22995776372842
H         6.89941099633557    3.99450156748953   -0.35582041132715
H         7.19871001566881    2.39393511694765   -1.00964755389199
H         8.52781226646441    3.34542658166135   -0.39412790030933
C         5.45099302666110    1.50258675484453    1.49030576417026
H         4.73459489277325    2.18827855028355    1.94566559414236
H         5.44643654545671    0.59003622439290    2.07820336555911
H         5.10277008738480    1.26002090516081    0.49125207938094
C         8.56617582709703    1.00482222505869    1.83014171503074
H         9.56408313352472    1.40708179581399    1.68277757618426
H         8.45214402212203    0.16088313904504    1.15858443589144
H         8.49550439754356    0.63262002516206    2.84772110311735
C         7.05999463585671    4.83164218935676    2.52536044270825
C         5.94582628544957    5.51197884580570    3.09936509594575
N         5.06907431493468    4.72379004110052    3.80240799247864
Si        3.34483720501925    4.83642856731438    3.85542495504370
C         2.66990607948308    4.89643434333466    2.06555403656557
H         3.09107939254446    5.73647093906794    1.52066276675357
H         1.59107777672275    5.00842357307703    2.06517343122064
H         2.91117275098580    3.99408972526479    1.51160495481923
C         2.66609052527624    6.34453059409211    4.82423825387702
H         2.57833609585931    7.22056722630705    4.18765309639972
H         3.30752911368314    6.60183168731902    5.66257213183931
H         1.67673116805513    6.13069929736974    5.21614658513876
C         2.91007124565039    3.20469028270914    4.74848984706071
H         3.49659294517283    2.37357519497956    4.34933179670141
H         1.85884736311894    2.95231564068013    4.65621501472977
H         3.14315406512586    3.28546539703315    5.80782783215613
C         5.82144059495639    6.88606640898869    2.91912421619665
C         6.75098651050796    7.60485463067145    2.18478773377988
C         7.84080264423555    6.93779570824416    1.60805598011275
C         7.98099946486358    5.56988028365689    1.78801395330739
H         8.82866605323262    5.05259418536344    1.36057098394884
C         8.85803699729834    7.69426790855890    0.80560965552950
H         9.63505999207670    7.02520316884222    0.44491088769797
H         9.32432901257873    8.47511000576224    1.40652791052663
H         8.38948462700457    8.17490204888899   -0.05300350132280
C         6.58852963063848    9.08620694551975    2.01697775231076
H         7.44719120867870    9.61704504960023    2.42807100708588
H         5.69295705914856    9.43265159891134    2.52650716157661
H         6.51167561994648    9.34924668052489    0.96213997710885
H         4.97756362121220    7.38881510563037    3.37191224489789

