66
CSD_code = RIFGUJ | q = 1 | S = 0 | Stoichiometry = C28H33CuN3O(1+) | MND = 4
Cu        4.21257930264306    3.31850915508449   13.25060209323300
O         4.51744601047103    3.84982522221712   16.13196275096310
N         3.53706921202395    4.45079263059832   11.56325185148804
N         3.02216557773447    1.76959627314411   12.55788355481309
N         5.86568319175613    2.80316210185174   12.08843007992944
C         3.54724031578852    3.75943402317767   10.25904019367313
C         2.66540031230574    2.50857401387857   10.24528777749578
C         3.18732249925952    1.38992879936519   11.14754300930866
C         4.64027015210289    1.05985564405181   10.79321482160584
C         5.57401086372309    2.27340162298063   10.74818141990094
C         4.97554091081788    3.37364935591975    9.86711431015419
C         2.27317656384978    5.16188180414187   11.84451513418971
C         1.96876182028280    6.22658874182629   10.82042665984739
C         0.95440409384510    6.06115873610449    9.88679239739308
C         0.70931856744759    7.03769213568092    8.93652850672833
C         1.48051953116815    8.18669635026445    8.90791158652453
C         2.49515655125255    8.35974004175989    9.83493655621205
C         2.73784646105994    7.38450532626992   10.78495639866112
C         3.03075546611396    0.63800368271578   13.49210141265262
C         2.87747186967525    1.10388435692806   14.91707542209385
C         3.72623968330871    0.61967342691623   15.90430514816183
C         3.59378438459205    1.03514341433821   17.21707030311297
C         2.60421413426779    1.93970023383157   17.56249857879426
C         1.73633121411004    2.41032043798778   16.59181904013813
C         1.87170404077040    1.99626204270154   15.27864750426661
C         6.82421678964331    1.99855022033258   12.85692208673957
C         7.05052068293585    2.58321823280055   14.22689890360626
C         7.39538301078015    3.92245737094284   14.38748994593736
C         7.60865860796420    4.44790195225267   15.64921329506150
C         7.48149444757468    3.64239817355498   16.76843799247852
C         7.16132851664250    2.30399849472918   16.61773856738642
C         6.94945554733080    1.77961690734500   15.35528723439777
C         4.36960364463195    3.72413257703354   15.01284411602279
H         3.16101722737086    4.44975575062926    9.49331907919210
H         1.64132216537464    2.76147315318070   10.52252261907743
H         2.63479947732121    2.13905593357668    9.21944242917262
H         2.58642036236894    0.48670780931211   10.95178916639789
H         5.03149369077470    0.31542949822387   11.48479982222796
H         4.64240295292737    0.60464683702654    9.80170862461931
H         6.51927404415287    1.94625985721919   10.28473387702711
H         4.95774823839611    3.01500783972703    8.83723773494304
H         5.61896249532326    4.25736462165677    9.88859122575610
H         4.25287846913230    5.17545812397976   11.50914518290990
H         2.10579565896907    2.20511967579083   12.64229799042776
H         6.29796334290324    3.71657828403240   11.96135567514858
H         1.45707188335545    4.43959734078003   11.88901136663795
H         2.37628971748502    5.61622683142460   12.83345745014994
H         0.34469365055587    5.16882349672959    9.90741350768413
H        -0.08528263508167    6.90038914100095    8.21948088132519
H         1.28835412884411    8.94876271782748    8.16896343031056
H         3.09366847171461    9.25765748238786    9.82133021774870
H         3.52127228976787    7.53041013012413   11.51697383295249
H         2.22070634797883   -0.06583684365603   13.24659550436700
H         3.97626018873687    0.10260937366977   13.39159337278972
H         4.48690778253760   -0.10144061388097   15.64556005433333
H         4.26025354745663    0.64816922484982   17.97202311377558
H         2.49961190605659    2.26511251985688   18.58556478967821
H         0.94883634967328    3.09886427627555   16.85747317153237
H         1.16936115190602    2.35944870791180   14.54130739195170
H         6.43276534577175    0.98591156432802   12.96291143303766
H         7.78307637580765    1.93274299452481   12.32056562034745
H         7.52351081121961    4.56107945194528   13.52434690453974
H         7.87996818688913    5.48675999357912   15.75822254009512
H         7.64648201341095    4.05340700403533   17.75197548390888
H         7.08101431499839    1.66614225240559   17.48403983805457
H         6.71862606802523    0.73115206680073   15.24291801490737

