36
CSD_code = RIFGUL | q = 0 | S = 0 | Stoichiometry = C16H16AuClN2 | MND = 2
Au        8.21686226330564   14.18345699248236   38.42996047006513
Cl        8.67859996031290   14.68815819613566   36.28934092248736
N         8.33585614159507   14.31607990054454   41.39380529441983
N         8.02590342118363   13.67137004180086   42.57309588390684
C         7.83471745412129   13.70619782050431   40.32702474678521
C         7.10800032204982   12.59393981223346   40.84258920189150
C         6.37603609971648   11.56892480623060   40.21663678361786
C         5.85152890545322   10.58011662031796   41.02900600948431
H         5.29085264171731    9.77575524448415   40.57695743263945
C         6.00192142389008   10.60645959940726   42.41697222401618
H         5.55836055026544    9.81704869973222   43.00528154855723
C         6.69288150845432   11.61295228138582   43.05462458152940
H         6.79474146970010   11.62459719645397   44.12895291242842
C         7.25538903185504   12.60009698891173   42.25118272991224
C         8.34821167069850   14.17574200876624   43.87318241768917
H         8.03799382772607   13.43652231891970   44.60824742120003
H         7.82112732159733   15.11198140239018   44.08205565587543
H         9.42278601949370   14.33719819288471   43.97830190189025
C         9.21374544752253   15.45728304811468   41.37959452705744
H         9.04444328984165   16.05685179970599   42.27669536640161
H         8.94848552442188   16.05222275113611   40.50316251659039
C        10.67674507861991   15.03381952124999   41.27422476056979
H        10.97043770809329   14.40006407629601   42.10824488334166
H        11.31286534540999   15.91384452326032   41.26424818068290
H        10.82974717959417   14.48415926994516   40.34863421337315
C         6.16978245838498   11.54420156264181   38.76178217556067
C         5.56403110194338   12.61990129216393   38.11617980904311
H         5.21521324578224   13.46010379444250   38.69887403844573
C         5.37221408635008   12.59336047879657   36.74689455518804
H         4.90513393689785   13.43283068051037   36.25492390760460
C         5.79808701369168   11.50360033853657   36.00724167740606
H         5.66838383362665   11.49434314475791   34.93568760131549
C         6.39361072564900   10.42772031306954   36.64348491932000
H         6.72698970326303    9.57581685967297   36.06904348234209
C         6.57015296074112   10.44168042393105   38.01508600956726
H         7.04556132701058    9.60789799816892   38.51247923780426

