38
CSD_code = RIFGAR | q = 0 | S = 0 | Stoichiometry = C16H15AuClN3O2 | MND = 2
Au        2.71325221861753   14.08611303334864    0.33849146822110
C         3.49185791304078   12.74741495979933    1.59278037797152
C         4.75399591224048   12.09862486247369    1.46217242065563
C         5.72938405207353   12.12522388381642    0.44919512361117
C         6.91015217076709   11.44850021973491    0.68689680405330
H         7.68196040892999   11.45618449697280   -0.06781697734805
C         7.11772086481924   10.72478602804721    1.86453336848563
H         8.05285575308385   10.20153553350759    1.99549468398321
C         6.16217203013008   10.65076607004020    2.85317960918755
H         6.33298217478735   10.07470917788175    3.74933422890414
C         4.97877693383650   11.35437157758512    2.64510331465606
C         3.66929019253929   11.02455692593827    4.76179991448548
H         4.44882078211463   10.30110641320645    4.98963912221352
H         2.70149129876472   10.52886656338247    4.85449579392274
H         3.72897688795083   11.83881496569177    5.49073576425879
C         1.73466706676691   12.69633108011979    3.31437081456334
H         1.47582425648078   13.68532143908527    2.92981339268209
H         1.79701860804829   12.74700691310163    4.40341298849267
C         0.67499846259538   11.68955695059309    2.87281701308763
H         0.60480646363837   11.68460979539745    1.78803190214985
H        -0.29059200239623   11.97168559319291    3.28132574389870
H         0.91496134762916   10.68337737550381    3.21005350155590
C         5.47668047919151   12.82267342342051   -0.82067721039036
C         6.33171224133254   13.81448921624474   -1.29029335607852
H         7.20575178149900   14.07541240673187   -0.71152710229290
C         6.05236579145432   14.49037817049713   -2.46824534592879
H         6.71182641052992   15.27558152247527   -2.80424460574666
C         4.93014831091025   14.17151359523798   -3.20947473172689
H         4.68427112083622   14.69081548622923   -4.12239920380892
C         4.09443699185729   13.15966482778126   -2.75682093532781
C         4.34609329825685   12.49703471123791   -1.56442543739866
H         3.68928635047844   11.69816694984563   -1.25567985774319
Cl        2.03795365418296   15.62203506838003   -1.15797306394358
N         3.02699428115914   12.36419581037486    2.77353600686524
N         3.87805906462678   11.49854154564240    3.42696176803706
N         2.93112878708326   12.79073785218901   -3.52347499749422
O         2.15357081969737   12.00866432939759   -3.01720984343053
O         2.81704682045824   13.25823122589043   -4.63431245728682

