49
CSD_code = RIFHUK | q = 1 | S = 0 | Stoichiometry = C14H30CuN4(1+) | MND = 4
Cu       -1.01074854627966    2.43696432792649   12.52869044626635
N        -3.02509058145609    2.10538852342357   11.94021550878139
N        -0.30400902901016    1.50954920384530   10.75191492986157
N        -1.02092106330821    4.34913460849850   11.59378501968617
N        -0.31348733224800    2.10775985980832   14.23921338070458
C        -3.30272035973676    2.42635847163199   10.53497745733121
C        -2.46416344680231    1.59433996437838    9.56013150776203
C        -0.98070818057079    1.96643093590711    9.53212106800205
C        -0.82000866923698    3.47104664874634    9.29387171340149
C        -1.62196564068644    4.35155927506706   10.25422466484274
C        -3.09069502022605    3.91675483039038   10.26354479256077
C        -3.57385586758046    0.81580232638284   12.36568041128930
C        -3.51072765429895    0.67836032839101   13.87755187976803
C         1.15465738171438    1.46116360669901   10.62838276700198
C         1.76375440385121    0.67360351478850   11.77601325771378
C        -1.48501224886956    5.44917987118936   12.44221819056471
C        -0.62263365140376    5.57028117961832   13.68712204693546
C         0.17431883844385    1.98127582032262   15.27372479702260
C         0.77483114960712    1.82265704232062   16.55243557725793
H        -4.36280400421267    2.19917040089823   10.32553369127851
H        -2.57480551427672    0.53252743070083    9.78358013546221
H        -2.87004075725958    1.75546327588291    8.56030098747836
H        -0.52722332104836    1.45240167148913    8.66637970307776
H         0.23523364044469    3.74373302288855    9.33608915859769
H        -1.16509221225081    3.68007541501277    8.28018930955897
H        -1.59289305004480    5.38241595898095    9.85947764525009
H        -3.65086872770115    4.50842420862045   10.98854793830064
H        -3.50413257744451    4.14088239218290    9.27907015542176
H        -4.61617737604122    0.71295807799059   12.03078380691957
H        -2.99313087865136    0.01390237021993   11.90494118520961
H        -2.48445276349115    0.79128770201554   14.22066857324145
H        -3.87480861619123   -0.29959214185888   14.17841956871509
H        -4.12514138916147    1.43544270429783   14.35990933924807
H         1.44399913191119    0.99992851006932    9.67302458121687
H         1.54592508101416    2.48061982018935   10.64089634240243
H         1.46761464554030    1.10956708921499   12.72745761628831
H         2.84721331399611    0.68884640478954   11.70520583627536
H         1.43436906092920   -0.36259710294040   11.74954910551666
H        -2.51892956493293    5.25808036618818   12.73680522281832
H        -1.46236178571048    6.39764828084737   11.88636624490603
H        -0.63370507268857    4.63424232286009   14.24094683470264
H        -1.00278672029962    6.36075294019596   14.32749915354100
H         0.40544173723040    5.80835748891037   13.42312714027558
H        -3.48082954110946    2.81941702115164   12.50631359128532
H        -0.61529602740256    0.55542048372459   10.92729222187053
H        -0.01727853775367    4.47523887543490   11.47181586895079
H         0.00925368806296    1.59409745157868   17.29412081997165
H         1.28453324347801    2.74378628982904   16.83580318419471
H         1.49826041316421    1.00759092929749   16.52156562127020

