62
CSD_code = RIFJUO | q = 1 | S = 0 | Stoichiometry = C27H32AsAuN(1+) | MND = 2
Au        3.68891512876558    2.41764671124870   13.07452619680457
As        2.51975449207145    2.92208175926051   11.12822405066737
C         5.14636866607762    1.31708837160780   15.60822541408595
C         5.65691167198662    0.55459971431626   16.65959377552549
C         6.59418848544424   -0.45173582809345   16.39168604827231
H         6.92019641742146   -0.62106765485810   15.37678196405298
C         7.08614568725778   -1.21115129825405   17.43376552238024
H         7.80794845330963   -1.98803842902108   17.23516872554631
C         6.65611879278132   -0.97716297119135   18.73293301192639
H         7.04642174153245   -1.57464043826216   19.54212655248351
C         5.72863754089497    0.02088666519884   18.99796917954870
H         5.39988436505587    0.19824775220100   20.01004075980209
C         5.22305251720916    0.79118924527646   17.96996177768818
H         4.50229119221516    1.57099925608234   18.16264976014051
C         1.75540969244075    1.41939413069871   10.18050891314008
C         1.92449769150874    0.09725418886681   10.60301828255330
C         1.46000637698041   -0.94309434490882    9.80114001460275
H         1.60081523846842   -1.96022827555452   10.13701373206869
C         0.81801266500139   -0.68982427462427    8.60416147888396
H         0.46023525319575   -1.50833887450129    7.99921188045785
C         0.63636827430031    0.61837491996844    8.18718866695225
H         0.13368796133888    0.82872418251232    7.25516022055195
C         1.11151142699895    1.65703223125774    8.96645508414938
H         0.97746318908978    2.67520434032965    8.62284082253240
C         2.55370045972789   -0.27218030351454   11.89073262162240
C         1.87675427377905   -0.05811705334017   13.09028800790644
H         0.91122091917979    0.43152992403688   13.07528725869662
C         2.40363954376741   -0.52077314133107   14.28381595742207
H         1.85858090834044   -0.37303792332305   15.20419751107348
C         3.61709608387705   -1.18862390848449   14.29464626443876
H         4.01556729536907   -1.56981436013486   15.22332745759529
C         4.30507828471899   -1.38756549231333   13.10935019713074
H         5.24789342939704   -1.91396012114135   13.11200420659740
C         3.77369998973763   -0.94122930575961   11.91194646852873
H         4.29640437247628   -1.12124447739374   10.98307029693665
C         1.01060056581661    4.14539273359214   11.59866892871170
C         0.25735938165073    3.40086812043162   12.69885336999222
H        -0.56262721898575    4.00554125084899   13.08457268463368
H         0.93201440132208    3.16062062873006   13.52878345336837
H        -0.16156417728028    2.47083243524702   12.30418788920903
C         1.62520650270275    5.42212916887006   12.16083989641553
H         0.86842179284579    6.02532635561345   12.66139717560537
H         2.06144862628351    6.02581848861437   11.36380043636536
H         2.40743429596587    5.17734902562289   12.88971206824092
C         0.05733054172045    4.46256742673738   10.45625411356333
H        -0.46693298616750    3.56342191881485   10.12815191964802
H         0.57984195539077    4.90630152814147    9.60757850788313
H        -0.69308664191367    5.17792479212691   10.79358951943273
C         3.88027811426625    3.66215982680815    9.85778065847015
C         4.79015542641677    4.59589786329148   10.65138464152004
H         5.63432578064197    4.91004512381212   10.03847659044864
H         5.18332288339731    4.08759314952514   11.53901298775654
H         4.25719396316614    5.49138521414062   10.97179287026991
C         4.67346069924090    2.43055337660948    9.42521821581997
H         4.06516915428357    1.77865620218070    8.79361704647682
H         4.98859273695141    1.86021306679580   10.30924133228404
H         5.56322930043629    2.71614988837190    8.86559428984395
C         3.32321852074814    4.39922763448682    8.64978479809105
H         2.73395931179342    5.26489163859379    8.95731538014471
H         2.71171227493677    3.74496382565838    8.02893777572581
H         4.14405922294826    4.76205846198913    8.03080671153308
N         4.74029708986959    1.96888593764797   14.75022865586623

