31
CSD_code = RIFJEW | q = 0 | S = 0 | Stoichiometry = C9H11N2O7ReS | MND = 6
Re        4.31413350025642    6.79871941981120    7.72694897190050
C         3.11566915413176    7.91764632692653    6.66789918698499
C         2.89196013154014    6.37000860959519    8.99001483260428
C         3.93031657833380    5.23281835522220    6.63072805271610
C         7.01673649002775    5.20274412229564    8.00210394536176
H         6.61235641139463    4.45737110974464    7.30671698595084
C         7.62969729422742    6.35895358495215    7.20809930056745
H         8.29337431244580    5.96954891681748    6.43726999586436
H         8.19075536852542    7.02738590574218    7.86372723940039
C         6.65036928501189    9.02160069479274    7.20852081414664
H         7.67232854566349    9.31462164967930    6.97813362070967
H         5.95241937728778    9.68143116109688    6.69023342108312
C         6.37769014973950    8.99067449396451    8.66805435563447
H         7.13001872424392    8.43551646259956    9.23707879192617
C         6.43639448267955   10.62575848584239    9.14354784481065
C         8.12727450171398    4.55775368736765    8.83712581510618
N         5.94253552235628    5.68249369922452    8.87737547150994
H         6.37089337536804    6.27926914714397    9.59410075405765
H         5.56304694049498    4.88529230855861    9.39366814178337
N         5.01328261687733    8.53766510125342    8.93919499503961
H         4.47056128024015    9.42505888831280    8.82064107181916
H         4.93213567029241    8.36226136659080    9.94427173826477
O         2.47559038594821    8.60325152477310    6.02167171548043
O         2.07007505353254    6.10766443726847    9.74360914395977
O         3.74443584403471    4.31830013666876    5.97090583255978
O         8.16563780441886    4.63330000391785   10.03436534979036
O         9.02654916766520    3.94152392602103    8.08463491085872
H         9.73481400738471    3.54926865090888    8.62210268581842
O         7.55682084113225   11.01318040632123    9.36931835883857
O         5.30525525390579   11.08073985264980    9.15447895876236
S         6.35217192912511    7.37167756393652    6.36355769668946

