34
CSD_code = RIFJOG | q = 0 | S = 0 | Stoichiometry = C10H13N2O7ReS | MND = 6
C         4.70373381664264    7.99894344128305    2.83753270969384
C         5.96962986374770    6.28707352989195    4.67740609182634
C         3.82905982177286    5.37497430440359    3.13790431871081
C         5.85380875164647    3.30041237867210    1.67816407490562
H         4.80054849929687    3.24793960873723    1.97399161123994
C         5.98588206236033    3.45486654406605    0.18033711368667
H         7.03529447631540    3.62405420758623   -0.08724080467125
H         5.70887414190881    2.49155882704539   -0.26020822880566
C         5.09096730901393    4.52517448083416   -0.42563630472230
H         4.04261872661652    4.31061620164824   -0.21426905187489
H         5.22753781491259    4.60264789287554   -1.50547870589782
C         7.04883067975578    6.58007662932486   -0.23083313417296
H         7.61781300105400    5.65095922279749   -0.21348866961160
H         7.04196530862790    6.98884047583436   -1.24123779160411
C         7.63971152379176    7.60449085883412    0.73426874852389
H         8.68001338786481    7.81026545507616    0.42697895248149
C         6.89588330796987    8.94002408826134    0.57818881947728
C         6.54395064654237    1.88906128016372    2.16882532396931
N         6.53909361585461    4.33694771539304    2.46676693582989
H         7.44832774287058    4.46081329176165    2.00627205007343
H         6.81506563226602    3.72933628407418    3.29999438535758
N         7.58291352070313    7.13382456692894    2.12442163853246
H         7.78424728748679    7.92390079129494    2.74096405213902
H         8.32793517276643    6.45178814619719    2.28290319691850
O         4.23099621839953    9.04041536291972    2.85200921415524
O         6.23018845205738    6.33922935413701    5.79023035158311
O         2.81864938267009    4.86926723365532    3.28960277932549
O         7.13883637449170    2.05023301432249    3.24076017918437
O         6.38873888483302    0.94305578671304    1.42264992322352
O         6.40731464568553    9.31143861953374   -0.44755277595600
O         6.90445201339751    9.64336273646381    1.70810756775914
H         6.41267125415461   10.47520553254633    1.61064206955481
Re        5.54036111159456    6.23662031143631    2.77549936479519
S         5.30278555092807    6.22228182528667    0.22212399436984

