55
CSD_code = RIFKID | q = 1 | S = 0 | Stoichiometry = C22H30AsAuN(1+) | MND = 2
As        1.50170232643820    7.20910662405493    3.67366747261932
Au       -0.11544177636840    8.66666148726152    2.84897312165979
C         2.04880675616143    7.44360554437615    5.51360952251950
C         2.95665753922206    6.53782628827029    6.06017119454881
H         3.26522529782080    5.67531321686542    5.48149103971318
C         3.47231023633237    6.71448774010275    7.33090206194785
H         4.16820852531094    5.99543525038149    7.73618999348454
C         3.09948416995131    7.82232744647001    8.07402213766937
H         3.50672239147780    7.97644657190247    9.06110127022877
C         2.19580878984986    8.72683954988290    7.54937088782027
H         1.88711445077771    9.58520879721102    8.12812926656802
C         1.65423349216382    8.54405071317414    6.27954115556699
C         0.63262371897414    9.50940311617781    5.81740764166527
C         0.97331992048075   10.81829522006786    5.49494368628943
H         2.00931670005807   11.12402317051144    5.53026137536247
C        -0.00958875822612   11.72858214199077    5.14604342783323
H         0.26437592735066   12.74361484368184    4.90093458419605
C        -1.34042902245686   11.34702832642306    5.13585357220802
H        -2.10684711634920   12.06786751959422    4.89300822354530
C        -1.69021661446474   10.04673928485255    5.46210511005564
H        -2.72817623134988    9.74894308858874    5.47181715804277
C        -0.70840328282767    9.12894923876524    5.79339851465736
H        -0.97663367144311    8.11878427467518    6.07909218681776
C         0.80530824507995    5.33876237455291    3.48896159311750
C        -0.04524195553023    5.31707864746494    2.22053364176063
H         0.56097261720052    5.52694020072052    1.33726567598856
H        -0.84201440400984    6.06624557210343    2.28063732592922
H        -0.50663379412334    4.33890724430499    2.08981555468870
C         1.85843512400945    4.24340577520937    3.40564403564776
H         1.36956086499492    3.27368657509341    3.30817931160899
H         2.47711926500959    4.20486331121453    4.30168951084199
H         2.49650299179283    4.38114212932665    2.53132850855295
C        -0.09361068352309    5.14407972296213    4.70730992743690
H        -0.81734948379239    5.96570529375123    4.76483521115071
H         0.49427367463228    5.13475601119040    5.62861172683780
H        -0.64434661955168    4.20652585116483    4.64050475720786
C         3.16740636603289    7.60903221636621    2.65018328371018
C         2.88645815812680    7.32448724527046    1.17935722712647
H         3.67875985187627    7.73002241631664    0.55103504658128
H         1.93861200570028    7.78694877141894    0.87814552526702
H         2.82899122415420    6.25087889337772    0.99448732952209
C         4.39778880463322    6.85111339451025    3.12454074917715
H         5.25422157212257    7.11379998551047    2.50361564931913
H         4.25636946077573    5.77210440484578    3.05629234632193
H         4.64138366884001    7.11599806546619    4.15505619241037
C         3.37729984066603    9.10727266196108    2.86363478321222
H         3.53973306175094    9.31967997450479    3.92413480501044
H         2.49892633830185    9.67083918173626    2.52770231543557
H         4.24563556786307    9.45988373674318    2.30854895696063
C        -2.28400285111677   10.76278844834561    1.80457741096859
C        -3.24277312527243   11.74679667115898    1.45864219829056
H        -3.57699037158387   11.58956835898706    0.43257267928728
H        -2.79698705073645   12.73827938569077    1.54337511461112
H        -4.09904042522795   11.67591876386125    2.13002951017618
N        -1.51054171060927    9.96174925609090    2.07361749106294

