39
CSD_code = RIFLAU | q = 0 | S = 0 | Stoichiometry = C14H18N4O2Pt | MND = 4
C         3.76550475118875    9.88499866694642    0.24848524679710
H         2.80565091099605   10.37875525906058    0.26868036241340
Pt        1.15490929997956    5.49092049747483    2.22113735998517
O         1.49952810937139    2.87711670091111    4.36314519159290
O         1.49868080503379    8.17316808016997    0.16519570193274
N         2.57509106018221    6.78678616784944    1.61256095581824
H         3.49907009869529    6.66015019094343    2.01443085734662
C         3.81436394511255    8.51512951730284    0.48208046274725
N         2.60512167484152    4.49469710924392    3.20684815857251
H         3.55540211840889    4.81816393773672    3.05302638961501
N        -0.29127030905501    4.12576566897101    2.87912880283478
H        -1.06334501289113    4.52171363595307    3.40838732695789
H         0.28915795119952    3.53035127823593    3.53527264870912
H        -0.66728545145261    3.51813918920761    2.15602659830687
N        -0.32100624074012    6.55152841978814    1.17960584453638
H        -0.98366331614871    7.05190857790154    1.76610032283317
H        -0.83624607481503    6.02078050468488    0.48258210246739
H         0.27460341525155    7.26823105865116    0.67625130877141
C         6.01482519698421    3.44769008923847    5.58934382910245
H         6.79047223650481    4.14575688246495    5.86967859465840
C         4.84565724743172    3.91374336473443    5.01509917990364
H         4.70851151414411    4.97683220843505    4.87128802930338
C         2.52973179138406    7.78845821150128    0.74800698382230
C         3.83797744633209    3.02261495214657    4.66111259662719
C         5.03955046974633    7.85854980359824    0.43032741999538
H         5.09007910092240    6.78690093791726    0.56691179497773
C         2.54468238969336    3.48012330180927    4.05522976714554
C         4.92519613189649   10.59347738030179   -0.00451743036073
H         4.87962492868840   11.65893781157135   -0.17655988590989
C         6.14383453493097    9.93628938219527   -0.04313209856420
H         7.05087052175598   10.48739330453684   -0.24443531162276
C         4.01280137595597    1.66489575828096    4.90501639447513
H         3.21405792309103    0.98621354709743    4.64629210011859
C         5.18675035720015    1.20072090900021    5.46823785066162
H         5.31814333751676    0.14347282269889    5.64672278071209
C         6.19725009989957    8.56815667571528    0.16563583188577
H         7.14488129429070    8.05110802115252    0.11929087890560
C         6.19111811226639    2.09162061782288    5.80893091601357
H         7.10751625420134    1.73143955674122    6.25327413591591

