47
CSD_code = RIFLEZ | q = 0 | S = 0 | Stoichiometry = C16H23CoN5OP | MND = 7
P         1.84524111406434    4.83350694023857   10.55590726170160
C         4.16191193104199    5.94075264500652   11.01010402677248
N         5.32654957146812    6.15919320323877   11.44300829171358
C         6.02692522137175    5.10645516474808   12.13195145546102
H         5.96182502963311    5.30553409428716   13.20791475863500
H         7.07961609577566    5.19223850179819   11.84811546643732
C         5.49183848843102    3.70649899776929   11.81244330958713
H         5.73796399784253    3.45708028688063   10.77811547259669
H         5.93992367155965    2.96166524730827   12.46988202729472
C         3.97364215668506    3.71893840462097   11.97644831860859
H         3.52309775569981    2.76570349935304   11.67921657941522
H         3.72056882124413    3.90748494034608   13.02713332007458
N         3.44388740687212    4.76158493350469   11.12640184376387
C         3.35938686929086    6.91301892135957   10.25051505552821
N         3.67624776528071    8.12378425576455   10.09541416070994
C         2.75525215649589    8.99661239837136    9.41500585862732
H         3.06504881472276    9.07870457887252    8.36698552987343
H         2.86651964694310    9.98452291121601    9.87037465829121
C         1.30721033441192    8.50927155598764    9.50801278393186
H         0.98180369208467    8.55147534363332   10.54967945836349
H         0.64641830240527    9.13204048614410    8.90636237397396
C         1.25052568451105    7.06069780663310    9.03205009665200
H         0.26140052032879    6.62198260690269    9.20373480395517
H         1.47050115431924    7.00987262032720    7.95865604517230
N         2.23139984253026    6.27220424983687    9.75094378068782
N         1.78213047462133    3.71316930380284    9.31809966247298
C         2.81585320078985    3.65480440083177    8.30589596795390
H         3.44560233410904    4.54043019885773    8.38084964916658
H         2.36345126157400    3.62585630088472    7.31129127246574
H         3.44193656753854    2.76465507976675    8.42680313488174
C         0.91074889881971    2.56198312040714    9.36110851215423
H         0.25504674677517    2.65090463877254   10.22971672656687
H         1.48593073471960    1.63436654293343    9.44508607747028
H         0.29913228746168    2.51028249524025    8.45637955758117
Co        0.16010061805627    5.01903132168222   11.89997932377305
C         0.89889530898199    4.47562807477205   13.84117949211027
H         1.55377639182855    3.68660115857380   14.17730179930923
C        -0.49499890068538    4.44612137168485   13.84628655805867
H        -1.12328462840074    3.63537523880801   14.17914540071711
C        -0.95556866841937    5.75579943331103   13.47846902806658
H        -1.98565092469783    6.07717989462634   13.51890098605004
C         0.16645414774617    6.60613755359738   13.34445274692001
H         0.14802722214492    7.67822258992259   13.23294179034029
C         1.30821087291884    5.79906408090249   13.48183966928192
H         2.32665490135974    6.16217848232555   13.51236723591233
C        -1.04646878112443    4.79925431016518   10.68850409548761
O        -1.83078611112753    4.67792981399999    9.85052457543028

