45
CSD_code = RIFMIC | q = 1 | S = 0 | Stoichiometry = C18H20ClN2RuS3(1+) | MND = 6
Ru        2.49448790120269    1.44435037456939    2.61556863254307
Cl        1.34503750849015   -0.50829937540073    3.20196436652511
S         0.39671162986492    2.41689170068989    2.19877113656162
S         2.30905266502016    2.20311237145958    4.83819330583312
S         3.49414652800402    3.51934591766335    2.07315484118971
N         4.17735823997460    0.38294959109677    2.93633001345803
N         2.68616373277472    0.65044662889296    0.77664382847558
C        -0.28089292192607    2.52504295016901    3.88976918227599
C         0.68342182969554    3.06712183265233    4.92093380387709
C         3.47386587328569    3.62533465099393    4.87993077224218
C         3.47075277523623    4.49803444930714    3.64406329967717
C         2.12731095679535    4.35098639015859    1.16814651306416
C         0.75610186364260    4.18614426495608    1.79011088338487
C         4.84865025992093    0.19733660043036    4.05911378288796
C         5.91219305928147   -0.69883598362822    4.16957103512788
C         6.29539726185346   -1.44372331447771    3.07771034853583
C         5.58157101719843   -1.29570336046110    1.87806653670230
C         4.51924858440788   -0.36775581531641    1.86483292422467
C         3.71715581262737   -0.22001299235051    0.69772918797894
C         3.99063122710394   -0.99125445448536   -0.45129074049562
C         3.13611349460405   -0.83300317839609   -1.55372304209156
C         2.08224308137329    0.04640020321550   -1.45191063462428
C         1.88890047565188    0.76383045479336   -0.27124573588936
C         5.85181727324400   -2.04131915677731    0.69366200007321
C         5.09273791868801   -1.89449168636282   -0.42035544511461
H        -1.19538542496499    3.11736935122082    3.84697642678287
H        -0.52639153871294    1.48184188902926    4.10627173568643
H         0.29199861399702    2.88096904245146    5.92163576395911
H         0.86309342076297    4.13543735398022    4.80629049364487
H         3.23932965850588    4.20919450059342    5.77047000302295
H         4.45126057454551    3.15974932513389    5.01131692572693
H         4.37089095446247    5.11294299016997    3.62447159412054
H         2.60158014002907    5.15137930986500    3.60668679648425
H         2.39760302495008    5.40410874876453    1.08239610153148
H         2.16148519952983    3.89521947834539    0.17773228794452
H        -0.00813271394034    4.50008036477344    1.07853341064298
H         0.64150492354418    4.77227957161569    2.69987759315195
H         4.52987643910712    0.76530360105584    4.92439974716847
H         6.41626369475149   -0.80214627673098    5.11677273802145
H         7.11339488806042   -2.14451888053900    3.13659882615885
H         3.30291337402307   -1.40545386706694   -2.45266818068151
H         1.39310506209974    0.18403737100754   -2.26930181084926
H         1.04799547335607    1.44079826331733   -0.18050661635848
H         6.67420101083356   -2.73987524552556    0.71196051753901
H         5.29903517704553   -2.47224595485393   -1.30815515011981

