143
CSD_code = RIFREG | q = 0 | S = 0 | Stoichiometry = C45H87FeN5Si5 | MND = 3
Fe        1.99210067024596   13.10611514715216   12.84242049866671
Si        4.75550378013128   12.81226727172074   11.16747227823077
Si       -0.00111576815687   12.46709152352155   11.93672960403714
Si        0.44900687830710   14.07704515216488   15.68074776301616
Si        2.04369036424711   11.55290109921215   15.46395913410485
Si        3.94945757216294   15.15201496925802   12.92341618943234
N        -0.79835128075537   13.87129096408385   10.95853699217156
N        -1.83720940988488   12.76033530432771   12.42261836443277
N         0.36688074016758   10.07081761863084    8.70157804735509
C        -2.81752686011490   12.14642821531259   13.29300987711070
C        -1.95822514005492   13.76452964139955   11.58083305494278
N         1.18562761647615   12.85245767013956   14.72915316087322
N         3.57745615388427   13.68198892091908   12.08259603270212
C        -1.55138297780076   10.77230877594587    7.39528020437151
C        -3.15460770742027   14.59684088418840   11.34703808365359
C         0.65748676075690   11.70709648007971    6.97376130269411
C         0.17768306793739   10.04928259463072    9.95369357475202
C        -2.04201614714392   11.53287797917634    6.34392087893972
H        -3.08351900294346   11.45015658573439    6.07027272058658
C         1.90441528379510    8.23123597559095    9.95400422178077
H         1.59873186040166    7.94113723279479    8.95331108827023
H         2.26540124078467    7.34961895701010   10.47858254901267
H         2.71433108335890    8.94711155789745    9.87115780443055
C         2.14034327902645   11.68638305155486    7.26442638436039
H         2.27255581012773   11.65940784469469    8.35037415795617
C        -0.19190894432843   10.88750450588203    7.74374428403519
C         0.72245278454993    8.84474630111797   10.70768415903161
C        -0.66824748922943   11.02498794045515   10.69348801549837
H        -1.34007815029087   10.44286642257912   11.32001254026215
H        -1.26949930507955   11.56001421527535    9.95673466698357
C         0.12348606658952   12.45251668567417    5.93872109552873
H         0.76197602085111   13.09001562867444    5.34884723633328
C        -0.34911385455374   14.82032378038345    9.96698418954587
C        -2.46036305745933    9.76618875151086    8.06759776836401
H        -1.93955951720922    9.33872321403630    8.92654823912532
C        -1.22501955774528   12.38783190703684    5.63272863278866
H        -1.62857023218455   12.98074284992356    4.82530722264028
C         3.89758140072111   11.20873210118788   10.59676556231341
H         4.13761885135508   10.37893024488517   11.25102877193555
H         4.21018390575152   10.93224090210852    9.59632546355331
H         2.81840689137387   11.34397245292882   10.59548361721015
C        -3.38942419178993   15.74092031906719   12.10381986897528
H        -2.68831133610171   16.02488759480825   12.87316299186337
C        -3.45033316777128   13.15161106292801   14.26163341942998
H        -2.67807874114055   13.61910857656520   14.86126166463871
H        -4.14048792309991   12.63221998160154   14.92235546406063
H        -4.00523515036371   13.91805129823210   13.72769480527672
C        -0.61204372615077   15.26696273652384   14.61950234287949
H        -0.11571879099877   16.22164305510056   14.49326329493393
H        -1.56072671870715   15.47245881751806   15.10509423072092
H        -0.80914608076904   14.85589437032910   13.63779480868663
C        -5.41707170696292   16.14670951800606   10.88242895130997
H        -6.29557151949154   16.74808930920345   10.70366974572391
C        -4.51604609403036   16.50941717721830   11.86986879725630
H        -4.69010892054929   17.39522106660661   12.46220662222143
C        -5.18603534154292   15.01172757518487   10.12414930857543
H        -5.88247551908184   14.72438881636809    9.35070775796494
C         1.12826902695099   14.51032243256330    9.72481857794606
H         1.69310209032369   14.56193995522403   10.65457180683761
H         1.54637688767907   15.21663422876841    9.01324154409290
H         1.22846753128008   13.50830756134557    9.32100593479099
C        -4.05995817241171   14.24045398209524   10.35272868109075
H        -3.87973711822729   13.35935834081625    9.75479366241091
C        -2.06820259539302   11.08815421656617   14.10510865518254
H        -1.78762090072744   10.24773245114759   13.47746266030109
H        -2.69856209898458   10.71405156642743   14.90741355093145
H        -1.16665453727172   11.52386659982754   14.52578244032916
C        -0.69546561206383   13.32104455286229   17.02419217074349
H        -1.40100905732891   12.60382571146878   16.62149158417616
H        -1.26356101913924   14.09155535304315   17.53731461855693
H        -0.10393213318230   12.80305053823346   17.77101890547667
C         0.93676363071377   10.03638895738501   15.86355203511558
H         0.14023819853630   10.31300061920984   16.54484219075089
H         1.51806063067502    9.25516999096209   16.34316442730349
H         0.48038594489141    9.60813128686128   14.98006380773555
C         2.90029839970925   12.89228322261322    6.71870846352163
H         2.94784095578406   12.86468413115391    5.63224469571036
H         3.91874962663050   12.87910529728713    7.09793082596848
H         2.43122669194492   13.82300798834234    7.02731872336501
C         1.14043007211580    9.20562263593856   12.13164788505201
H         1.83907345929714   10.03444617620660   12.13683777102182
H         1.61404752964749    8.34676393639013   12.60114889427609
H         0.28632746263032    9.49206710681524   12.73522766365152
C        -3.76006110744102   10.39572657022298    8.57111071963516
H        -3.54683228701280   11.22794753061653    9.23848051510789
H        -4.34543709709637    9.65886740622028    9.11821696992628
H        -4.36668165378788   10.76309735485589    7.74732625392661
C         1.59844027518602   15.25089403135181   16.67361149583354
H         2.23994724470129   14.70202104673933   17.35312731267562
H         1.01197049316219   15.94392396160104   17.27148185320908
H         2.23625066510463   15.83977432080457   16.02413934834937
C        -0.40106929250552    7.79411265523522   10.76704279664606
H        -1.28022755162008    8.17829328999363   11.28048730737470
H        -0.05290944422062    6.91637477724959   11.30695685880303
H        -0.68905763091287    7.48708112779190    9.76429245567287
C         2.29744411091442   16.09626820152996   12.97219398225664
H         2.13426279154270   16.66394047422973   12.06303484452869
H         2.25878608229026   16.79219143448613   13.80160503978339
H         1.48473363592332   15.38037422812544   13.09041273370886
C         2.73216606072326   10.39621706936704    6.68570966965594
H         2.22822912857001    9.53376691163808    7.11065065715094
H         3.79410432631536   10.33051206781022    6.91344554256344
H         2.60673782264850   10.37730237085142    5.60480434403042
C        -0.50657755517737   16.26317358562429   10.46410981371660
H        -1.55225693849802   16.56009684882840   10.47662537150586
H         0.03079429097294   16.94018039998262    9.80516637511734
H        -0.10385556319498   16.35720185686096   11.46815632310280
C         5.26383237876445   16.27154264572541   12.10730389369160
H         6.22991689590911   15.78104465113694   12.07275015305894
H         5.38286539113699   17.19117565884724   12.67145670358980
H         4.99100190764651   16.53954307139989   11.09294594573325
C         5.26997708243154   13.80359593743737    9.61518619423611
H         4.41323290699903   14.27713366829301    9.14916617466794
H         5.73590473253208   13.15486816728683    8.87999103700342
H         5.98453326468381   14.58058481141839    9.85966504316374
C         2.91374666185949   11.92133554625330   17.13252462115763
H         3.65341607774144   12.71045028594493   17.04895087200090
H         3.42329966511135   11.03654600009987   17.50320689446945
H         2.19562836909574   12.22267319233317   17.88698641130398
C        -2.76011157238430    8.62222050257380    7.09417237292480
H        -3.28940195495997    8.98953762454692    6.21808558838291
H        -3.37400070795880    7.86383159165003    7.57676675127301
H        -1.83220353026208    8.16072552709772    6.76370199920354
C        -3.93298812813680   11.48172721107901   12.46957673854274
H        -4.53989878865770   12.23053037606480   11.96675487135299
H        -4.57744728640776   10.90437691001704   13.12777444888616
H        -3.51684780073619   10.81273490207560   11.72134911774497
C         3.42457572829540   11.00358679385084   14.26258258821935
H         3.20353504400102   11.32552062784926   13.24563454362287
H         3.54913293502548    9.92811293883166   14.25617541629845
H         4.37411700503413   11.44198019757492   14.54480599205899
C        -1.12135290875104   14.63705193271380    8.65195469159660
H        -1.06729589596712   13.60326013324209    8.32155829389692
H        -0.68502608849692   15.26361769239747    7.87881797170998
H        -2.16513468764823   14.91668048341893    8.76865594386764
C         6.36144731421747   12.37956806541486   12.11173608040886
H         6.84831343844121   13.27757843671076   12.47839556855000
H         7.06676710066673   11.86307884847400   11.46778929703865
H         6.16628753860287   11.73894640638278   12.96503929667927
C         4.54172238390580   14.71065410169764   14.68354616510819
H         3.79635279489575   14.08554819687512   15.16506655731750
H         4.70216402685147   15.58899302563946   15.30032449976044
H         5.47483425443887   14.15694487997727   14.65407099302559

