68
CSD_code = RIFVOR | q = 0 | S = 0 | Stoichiometry = C33H27Cl2N3P2Ru | MND = 6
Ru        2.15868322977933    2.74423975775173    4.55484058942016
Cl        0.57056277116524    2.51419621872296    6.30605766581416
Cl        2.78461169559143    4.91803786476740    5.31553758405593
P         1.64165861118775    2.24769102135324    1.26040433445301
P         3.71519132086650    1.58299575558856    5.89196592801563
N         3.52313252098612    3.05938392210281    3.12449440853299
N         1.45703336001432    1.02705037170745    3.76438593359369
N         0.79468623637555    3.72080905137633    3.46558875711950
C         3.29307764264370    2.81528198686665    1.82885305487824
C         4.24781349584711    3.02608704212086    0.84035666570197
C         5.48894606719223    3.52724148501416    1.18537385595512
C         5.71007736438234    3.82411805233562    2.52383314670409
C         4.71734960312721    3.57573555055251    3.44758244243988
C         1.35471052577581    0.86193109145985    2.43531968173109
C         0.93015615713221   -0.33097603472431    1.85919131193748
C         0.57250416176778   -1.39666292263431    2.66444403006823
C         0.59798825118823   -1.19272491446527    4.03785439096818
C         1.03315114804304    0.01746342350758    4.53598530172222
C         0.63443550578182    3.50726036540992    2.15389153839995
C        -0.29612912716629    4.20833417600119    1.39485609221080
C        -1.09143200647711    5.16214284127942    2.00405912487336
C        -0.92660695800494    5.37022804161476    3.36544929444478
C         0.01965540785954    4.63507636251848    4.05387346859347
C         5.18216730636230    1.14330135325337    4.88956014874166
C         4.94367305251831    0.42861595657469    3.71520820943540
C         5.97423781458072    0.14118519919233    2.84186376580623
C         7.26013081021093    0.57383863927273    3.12559057919509
C         7.50383622347508    1.29617525046165    4.28076171736608
C         6.47164189808062    1.58699228541266    5.15650014437164
C         3.25475926093178   -0.04383281821563    6.60324488721860
C         3.74005887141912   -1.26916552628241    6.16609132793022
C         3.33611554756281   -2.43704082608578    6.79202763338974
C         2.44831419828498   -2.39303155585953    7.85235455873248
C         1.96472932688873   -1.17173466473895    8.29611725442581
C         2.36743299335832   -0.00336895525531    7.67984897671775
C         4.41171894371626    2.24046706656748    7.44378103649904
C         3.90383436876781    3.39919910157289    8.01485660480194
C         4.39062476467971    3.83735098739147    9.23592132599059
C         5.37489055519533    3.11991679372396    9.89144130972034
C         5.86662311659704    1.94781300534578    9.33472538108890
C         5.38241614887738    1.50112602558974    8.12169559759476
H         3.99488478231553    2.79643413536520   -0.18466982564563
H         6.25072021311129    3.69485048122109    0.44032201260833
H         6.64660593996746    4.24292720050622    2.85492052686014
H         4.86852212655362    3.82340039567007    4.49151573565254
H         0.88653818199105   -0.39845769525279    0.78159863052711
H         0.25982228896547   -2.33783241436486    2.24018564256270
H         0.28531265533748   -1.96166677048352    4.72576829263817
H         1.01476439705961    0.20647290864372    5.59968701267227
H        -0.37738801415879    3.99406079064030    0.33885452959465
H        -1.81776705494197    5.72311500202457    1.43624330675846
H        -1.52189945212350    6.09586150932210    3.89592095303194
H         0.16185139511359    4.78021639828374    5.11768200838004
H         3.93372144439507    0.10867830599576    3.48334042310541
H         5.77512162892728   -0.41271650397518    1.93561848763371
H         8.06697534722093    0.35444635405440    2.44222618807855
H         8.50316762174113    1.64363482346538    4.49891648061350
H         6.66808085902723    2.17336495498049    6.04246542900778
H         4.44132037044977   -1.32270198226517    5.34595407387729
H         3.72257129614223   -3.38584299136686    6.44783392466514
H         2.13675236918762   -3.30781175877311    8.33497418424801
H         1.27333034372781   -1.13066446720518    9.12448059339560
H         1.98065544404817    0.95167106008384    8.00984912081493
H         3.13344336223738    3.95575577519693    7.50137990932088
H         3.99455158264185    4.74094168258006    9.67462658910735
H         5.75574043820541    3.46368580103804   10.84231666691411
H         6.62353687992040    1.37742648872139    9.85415165904860
H         5.74710136661532    0.57400268790378    7.69854838418840

