61
CSD_code = RIFVUX | q = 0 | S = 0 | Stoichiometry = C23H24CoF7O4P2 | MND = 8
Co        9.51838998733465    3.82898174153682    0.85922370479088
P         7.84930566568303    4.06729682902093   -0.59421386680590
P         9.42079003242144    1.66788838299469    0.38595263470640
F        10.46754410137923    3.59183082478028   -1.77107715165612
F        10.64405352376371    5.56818825525507   -0.92270710121479
F        12.51173334813926    2.86790801108480    0.30497506975670
F        12.76178307300494    5.00594524373996    0.43232063311517
F        12.99178711747346    2.87087104296889   -2.32180704153169
F        14.40954552443712    4.15296398782217   -1.35576042676966
F        12.79250987249226    5.00791611666409   -2.47635372745108
O         7.90330053396330    5.43536828423461   -1.45628335983353
O         7.74728815820812    2.87983533164022   -1.46217069837507
O         8.06516061785586    0.85740160340949    0.72924884204608
O        10.49632242079153    1.02657595514100    1.41803828892959
C         8.40252045566591    4.30495581158447    2.58864254247602
C         9.48569940843475    3.48530859590026    2.98208338063187
C        10.69004361447785    4.13829935171102    2.64387098378569
C        10.35245943501879    5.36933303496500    2.04051238549233
C         8.94043898656280    5.47827235519868    2.00386569230253
C        10.73852494857265    4.23705232836696   -0.58658814626626
C        12.26179183570349    4.02588063588859   -0.35131589978048
C        13.11241627320283    4.01589095777830   -1.65358520950051
C         8.28397301373079    5.42199095136800   -2.81913397718453
C         6.24706838834652    4.35992171252607    0.25900170257737
C         5.82523133290680    5.62194449757252    0.64459296633909
C         4.59461942227484    5.77410152206366    1.25913475797124
C         3.78966794447702    4.66942852251636    1.48946936818545
C         4.20490614669902    3.41185446888435    1.08332382082532
C         5.43412710164959    3.25774121535261    0.46520724279222
C        10.71329416460701   -0.37622515502619    1.50811298130221
C         7.44043497725224    0.90284826913268    1.99874902849056
C         9.75069190030854    0.78561870984417   -1.17312417019062
C         8.72297827327611    0.29001049086028   -1.96189742612066
C         9.02317650629352   -0.40576811924067   -3.11890920164881
C        10.34168706742735   -0.60276191762729   -3.49569682788739
C        11.36680351008949   -0.11039342058574   -2.70617336987765
C        11.07233632948854    0.58269643340730   -1.54573980081736
H         7.36464162416580    4.15323645355141    2.84372797249467
H         9.41353269873500    2.57056197838322    3.54738235065735
H        11.68167554818438    3.80466513475047    2.89816389269882
H        11.04140714532014    6.15047585352394    1.76308433828366
H         8.39147470295312    6.36020400001367    1.72059132125278
H         9.26631061829231    5.88140626015131   -2.93334591470218
H         8.31080262116513    4.39647842292893   -3.19494266495635
H         7.54161438839977    6.00064898033547   -3.37116409004264
H         6.44969201081081    6.47741905923283    0.44045756224746
H         4.25998309229222    6.75683504287790    1.55818963946892
H         2.83271780326224    4.79163718428389    1.97541272938181
H         3.56855577588956    2.55340970764920    1.24323026130907
H         5.76899293548375    2.29391588990848    0.11351915433840
H         9.85667945318232   -0.93869564539046    1.13071256275594
H        11.60061401357544   -0.65354826254160    0.93852612730367
H        10.87293768393515   -0.61130075263592    2.56136712119382
H         8.13839406882863    0.62283986594386    2.79185859864601
H         7.03180511538027    1.89290704066374    2.20597739517608
H         6.62701279390922    0.17709469187935    1.96398882440197
H         7.70148647432597    0.47156874057914   -1.67640168930588
H         8.22299206965496   -0.78805209954117   -3.73547455279685
H        10.57029637293641   -1.13656601767851   -4.40648755106454
H        12.39656074906607   -0.25612998803964   -2.99508002113039
H        11.86931522682588    0.96541559641832   -0.92848199122542

