59
CSD_code = RIFWEL | q = 0 | S = 0 | Stoichiometry = C30H23ClNOPPdS | MND = 4
C         6.98384117079077   11.74551856010906   12.85565191763200
H         7.17222371800433   12.69122586661730   13.37829281323840
C         6.56676340170445   11.89855806409523   11.47284005967489
C         5.43296897633047   12.87357592687428   11.35371982497303
C         5.18430525512680   13.70047187729892   10.24709244582514
H         5.83055537471880   13.62335124788919    9.38729674759547
C         4.11353690499838   14.55251932792089   10.29227965816185
H         3.87012325485721   15.18567073290001    9.45129244693202
C         3.31914271249913   14.62166690939626   11.45729961942284
C         2.23382206506615   15.50785746203484   11.60683255467106
H         1.98475825737308   16.16410482925998   10.78571721406423
C         1.51795024654956   15.53748550212503   12.77232583873387
H         0.68443958685171   16.21590194562932   12.87692588786387
C         1.86344648857539   14.70389903495514   13.84858472228206
H         1.29782921172395   14.76166769476656   14.76576029937579
C         2.90860918219769   13.82837493247026   13.74173474488203
H         3.20261863527318   13.17716396122679   14.55870517692940
C         3.63546031214852   13.75197607219855   12.53777529092223
C         8.02071048902576   10.67414028868582   13.10162570877323
H         8.78954296462235   10.65491904883584   12.31986307910620
C         8.61504897576856   10.72031333591731   14.47918516335320
C         9.92163719995492   10.29820434007432   14.69981163220022
H        10.52779656419559    9.97333525525201   13.86651258631588
C        10.45940763527210   10.30097603684865   15.97375719685699
H        11.47626003808087    9.97025074343417   16.12568630772376
C         9.69716738351794   10.72488026207062   17.04855543745375
H        10.11494975689989   10.72253330971043   18.04413459121672
C         8.39914355257175   11.15768000840888   16.83935631232446
H         7.79995831252765   11.49438145274869   17.67189416248081
C         7.85963850090576   11.15952034023044   15.56561971951206
H         6.83376177818922   11.50808294899799   15.42803523044825
C         8.16496310903805    7.72424444029859   13.33784456328567
C         7.78096675337058    6.72051047026607   14.21782250208138
H         6.80744979044063    6.77412617603828   14.68463762221776
C         8.64302836718760    5.67557260076474   14.49585197247873
H         8.34072911669102    4.89754665671422   15.18046804197803
C         9.89261493618796    5.63123820676069   13.90016649478700
H        10.56787077682833    4.81779617710390   14.11982035956471
C        10.28016706608071    6.63274138759884   13.02476137847660
H        11.25623377647370    6.59969525068173   12.56312320661852
C         9.42137120951238    7.67894933699274   12.74214454764165
H         9.73150790837873    8.45965515306555   12.06203919754050
C         6.29706900943546    8.79943742310692   11.37006866442117
C         7.09113874147414    8.26828708998496   10.35906806331342
H         8.12546216106412    8.02768387471738   10.54922977876952
C         6.55865827137647    8.06370792880532    9.10089442602465
H         7.18306149718040    7.66340621835869    8.31588244840793
C         5.23529397524727    8.38078513476234    8.84285871327178
H         4.82734439478826    8.23282251172546    7.85402603644437
C         4.43485607536652    8.88105639491101    9.85538272557502
H         3.39772939564659    9.11541671552396    9.66608495507299
C         4.95500511456734    9.08476085681057   11.12219590445375
H         4.28644643502681    9.44274872259293   11.91584170005350
Cl        2.80785996796798   10.66864965155218   13.73422672873616
N         4.65650524978144   12.87673294307142   12.42667891954855
O         7.02321072224955   11.27660996319921   10.51498143348586
P         7.00644196244205    9.09204558584632   13.03260850710198
Pd        5.04328761015553   11.14642209647302   13.35332091372175
S         5.61280869971290    9.12454371328407   14.44230580398467

