56
CSD_code = RIFWIP | q = 0 | S = 0 | Stoichiometry = C27H23ClNOPPdS | MND = 4
C         4.42305202842656    0.04873450492057   14.28731208057848
H         3.92074502088897   -0.09570347418790   15.24820657149723
H         4.57743741999333   -0.91131740750426   13.80437469967664
H         3.76702804219515    0.67791896460672   13.68110158578121
C         5.70969980053937    0.75721038216914   14.52581734421556
C         6.95347800176112    0.13559798497414   14.43806264745546
H         7.00528558125024   -0.91385165496891   14.19394224711600
C         8.10732914358165    0.86306963024056   14.67801491627989
H         9.07261422210873    0.38113819322437   14.63489713887990
C         8.01292570754776    2.21646531163863   14.96678845468820
H         8.87953030566992    2.82761996796078   15.15999703907678
C         6.74891894561793    2.77997171534405   15.01890319552897
C         6.42810961530498    4.23090056958088   15.30348226816368
C         5.28001309221866    4.66330627276255   14.52093023251232
H         5.25289032622471    4.30736339791727   13.48622048775538
C         4.84469801029958    6.10713921812704   14.70568121627788
H         5.31412103218136    6.47942628985016   15.63254104417219
C         5.15630936428389    7.01869853345445   13.56145482557088
C         5.91630183750953    8.16407442193463   13.77982292287937
H         6.27631443859339    8.38409042240028   14.77540159972795
C         6.23025825550991    9.01186229259825   12.73314127496436
H         6.82149896847277    9.89625522064072   12.91906623442807
C         5.79219882719914    8.72551701259764   11.45123225908288
H         6.03414627790574    9.38857254629070   10.63423679312192
C         5.05380383823482    7.57758730057076   11.22097197268336
H         4.72025877332140    7.33860228612403   10.22175031224084
C         4.74337591992082    6.72660637222830   12.26661741466935
H         4.17877755343233    5.82674020294693   12.06942817717543
C         2.17481802539088    7.42542932385443   15.40920648843492
C         2.80169355944737    8.66282617352230   15.37598299825663
H         3.85206023879870    8.73304141204116   15.13803287879245
C         2.06759705742908    9.80726669576148   15.63843857869889
H         2.55276040485264   10.77162296060528   15.61072222753250
C         0.71916354064899    9.71677527392783   15.93982639680551
H         0.15253713108112   10.61237053525414   16.14649672853513
C         0.09530276417767    8.47874039281009   15.98317873673980
H        -0.95455638193284    8.40877868438825   16.22541468594536
C         0.82082399536702    7.33332832905075   15.72086603136758
H         0.35388285994620    6.35787918867236   15.76052106477893
C         2.15874216657533    5.07289291902598   13.77802888140351
C         1.68124497143870    5.89875196104367   12.76262780323382
H         1.86515937232423    6.96358913512505   12.80781390924395
C         0.98539681094490    5.35397624403816   11.69968415983351
H         0.62199712114692    5.99628119735273   10.91153528320480
C         0.75323367858205    3.98809910374815   11.64855712146686
H         0.20893645008094    3.56494349493299   10.81774309839684
C         1.20556842332076    3.16815873444956   12.66942791366299
H         1.00500381945104    2.10763458967655   12.64230204229521
C         1.90377742915193    3.70390268650074   13.74022190315161
H         2.21467086034069    3.04517935425769   14.56806367397648
Cl        3.25732741192069    1.58888244788618   16.91847382897881
N         5.63984984400983    2.05216773041538   14.82544310617510
O         7.03657449172072    4.89477218393170   16.13600524306514
P         3.05727754601948    5.85411840266497   15.17148683164654
Pd        4.22826958265169    3.25993004971717   15.66739487000246
S         2.96326647492655    4.83066431693506   16.86760655815027

