50
CSD_code = RIFXAI | q = 1 | S = 0 | Stoichiometry = C23H23N2OPd(1+) | MND = 4
C         8.62557872998704    8.81931784116178   11.92429087229308
C         7.98853600008034    8.24361534785166   13.01388566235913
H         6.91554908819305    8.08324913656185   13.01476778375777
C         8.72422423820113    7.85038456950434   14.12585138432710
H         8.21780458400061    7.41275744673984   14.97267840451793
C        10.09744956070385    8.01261684712986   14.14840417475860
H        10.66332249138725    7.70940894681300   15.01527597998165
C        10.75128390950460    8.54265333687339   13.04801211654518
H        11.82628856512239    8.64515751230851   13.05040818302174
C        10.02131021349702    8.93499727466239   11.93736866737853
C        10.64171931028757    9.48758566541893   10.68118202574251
H        11.64601466200340    9.08374612132318   10.49943292387950
H        10.72039125401812   10.57820395179832   10.76402426218687
C         9.94822604460589   10.07055245782287    8.42687232429102
H        10.98505121710037   10.02142553932120    8.07336474864267
H         9.72746880876380   11.09927230189602    8.73107264272875
H         9.28340287354362    9.79435285151889    7.60437874500862
C         9.92685178193210    7.77381240211732    9.13034922206149
H        10.91739808648916    7.63754501770364    8.67986578158505
H         9.16370887692993    7.50733136858571    8.39104465987128
H         9.83723444103019    7.10817469409358    9.99269239612617
C         5.47850345550098   10.19553575122965   11.85022806878160
H         6.22394308504553   10.28283684058739   12.63337485664049
C         4.17020989831218   10.59902789299661   12.06717551299155
H         3.88476436882738   11.00586752462580   13.02349795422605
C         3.24834053000105   10.47241202827361   11.03890434339340
H         2.22230182877098   10.77576536039779   11.17509640274476
C         3.67570118717455    9.96544626097694    9.82296235097299
H         2.99269924360824    9.89686579392847    8.99206600739081
C         5.00516222401525    9.58218542925941    9.67264068004211
C         5.59081735201951    9.13494924353720    8.37427996542352
C         4.73971967607631    8.53907569488904    7.38170281889170
H         3.71713648271887    8.33678808512587    7.65313574838817
C         5.22021618904309    8.22702289578029    6.15283589429764
H         6.26083666423046    8.46458531967357    5.96088225544607
C         4.50572801944297    7.63472392849152    5.05879161820054
C         3.16683917806399    7.22490431719032    5.15006692811650
H         2.62843340920561    7.33872772766495    6.07781567809564
C         2.52939863982807    6.66782181271179    4.06190802524446
H         1.49962473286006    6.35552968221366    4.14476240418258
C         3.20562619567277    6.50693532811869    2.85989726059171
H         2.70055699622151    6.07228417942992    2.01123356595653
C         4.53061372373906    6.90415880979699    2.75152052713103
H         5.05722444796244    6.77842725198348    1.81806160799744
C         5.17472640584283    7.45972178164859    3.83701844848804
H         6.20587254470374    7.76996436075531    3.75061469813520
N         9.73630893748991    9.16418400119055    9.55704252286892
N         5.88735620822662    9.68609880637279   10.68928347089119
O         6.80966199893435    9.31502128711601    8.19942768558430
Pd        7.80736163892831    9.33647197286847   10.17804973787423

