49
CSD_code = RIFXIN | q = 0 | S = 0 | Stoichiometry = C20H20N2NiO4S2 | MND = 4
Ni        2.45898295087733   20.43932816096268   16.16776930666921
S         1.29504017051484   18.63514178110547   16.43821487126256
S         1.22221607685683   21.00384369361139   14.48453207178103
O         3.58431749385948   19.98234897092472   17.62019828191492
O         3.49800946664214   22.01134472388520   15.98608326784331
O         1.14343200297368   16.68065236545958   18.00434408416903
O         0.97129929780625   22.88810786627474   12.84714134618732
N         2.89476025881832   17.98907083270020   18.57234412115616
N         2.71189797718227   23.29458992330068   14.22799409418458
C         1.87672516935608   17.75926940587466   17.78486055109634
C         3.69674365151217   19.05336133159486   18.44929704737509
C         4.81444376590995   19.09827912308146   19.41704656025798
C         4.95884984143667   18.11867808536818   20.39678825653727
H         4.23745381613021   17.31901042482430   20.44525023679007
C         6.01421810267030   18.18510786085833   21.28620342257323
H         6.12572746214297   17.42601456957958   22.04644576004259
C         6.92967942461667   19.22323440454830   21.20625460272664
H         7.75313284825440   19.27064949853216   21.90375597624864
C         6.78986036938928   20.20030011642653   20.23285015362392
H         7.50482799216580   21.00754417564047   20.17172614531798
C         5.73715840765075   20.14016419966149   19.34080440669122
H         5.61168966373731   20.88855205190166   18.57334427664421
C         1.50815250269550   15.83324767112219   19.09348703371105
H         1.46436332631528   16.41065150551864   20.02348460590882
H         2.53902614094060   15.49211905349182   18.94882053799907
C         0.53581248488552   14.66804729679771   19.11826985275028
H         0.77971654791059   14.00427527669292   19.94262061577199
H        -0.47973127133991   15.03334572214873   19.24181331652914
H         0.59304525843398   14.11513130130102   18.18498878908406
C         1.73078360728589   22.51157533708260   13.86242717361217
C         3.53766397054962   23.01668308552590   15.24386932098526
C         4.58806684134095   24.03093209601088   15.48017088290390
C         5.48974123821895   23.84338752449147   16.52642573837877
H         5.39437945406541   22.96130458636694   17.14103805896109
C         6.48076326246264   24.77594291058376   16.76271774247968
H         7.17904856785029   24.62900551235138   17.57355448639985
C         6.57929475290721   25.90090843387582   15.95868105293767
H         7.35449085568192   26.63011033604476   16.14381253198877
C         5.68373587881136   26.09260533773998   14.91778451805193
H         5.76264748111892   26.97111484535105   14.29432154567452
C         4.68996360152418   25.16350526932854   14.67560721590568
H         3.98550611945694   25.29672967209543   13.87045094208613
C         1.26662448207864   24.13353969845277   12.21535203544206
H         2.28574566488983   24.09618974086411   11.81502780168881
H         1.22020339161547   24.93202114602316   12.96386635406269
C         0.24518821694809   24.34611550099969   11.11293129995442
H         0.44288224296984   25.28599912664786   10.60578246074748
H         0.29904075287736   23.53358943005129   10.39398610213996
H        -0.75642158299626   24.37022901693017   11.53275914275296

