84
CSD_code = RIFZOV | q = 0 | S = 0 | Stoichiometry = C42H35FeN2OP3 | MND = 8
Fe        8.36959272930643    7.42846589937562    4.04830769084555
C         9.69761847959358    8.05185216203889    4.96708332702340
O        10.59010761916588    8.44232331827551    5.57190068502306
P         7.38363797006618    9.27449373158109    4.55850068149697
N         8.14510372586914   10.69340541221028    4.45474821839718
P         9.41198083906978   10.98893109566254    3.49756867324204
N        10.02073694286616    9.84178994223327    2.53503346907212
P         9.40260948601747    8.35659264305713    2.40093303688026
C         8.28011719516780    5.56784051445706    5.09459342110666
C         6.97442779905386    6.09182750528270    4.97695039477698
C         6.66755163097973    6.18912040942396    3.59299607098481
C         7.77982490790799    5.72071200192854    2.86735720879782
C         8.79105671895316    5.35533703583162    3.79195750739073
C         6.86440959275353    9.33576488839176    6.30438356651043
C         7.44298266131005    8.51512549551976    7.26164276676952
C         7.10956337390969    8.66412964902281    8.59652691555580
C         6.20233584734399    9.63842632399853    8.97887052523724
C         5.63704980368646   10.47309993784120    8.02719433945212
C         5.97019910428629   10.32720706167255    6.69361165156314
C         5.79547294086644    9.50144416193504    3.68506394808132
C         4.65435907693949    8.80729107105333    4.07239145896314
C         3.48256490923438    8.94933162691595    3.35326454144514
C         3.44676974853672    9.77517765461519    2.23954917126787
C         4.58230461346915   10.46635994625972    1.84955164633608
C         5.75423217855640   10.32816463787498    2.57020891610811
C         8.97485104205217   12.41720506700292    2.46928025173974
C         8.69629151368381   13.61931222835594    3.10675045137167
C         8.27659745823871   14.70728233153456    2.36505711911178
C         8.13207870001733   14.59210520995567    0.99041552115458
C         8.40507029767708   13.39075310955505    0.35663549778476
C         8.82543482438360   12.29918873739575    1.09588057063091
C        10.76902936929162   11.57995186017417    4.53774832356573
C        10.66634399471977   11.61199614341291    5.91942236965826
C        11.75023321219158   12.02515426753195    6.67394172063160
C        12.92806921025961   12.39972563812749    6.04803970878386
C        13.02970532662155   12.36339032432358    4.66523530388466
C        11.94928660053808   11.95328306835269    3.90764136696850
C         8.53256997250448    8.39825936939333    0.79210533921216
C         7.16451870743797    8.21099400111025    0.67432595575786
C         6.54251040802902    8.39912183560380   -0.54802372881403
C         7.28613824678846    8.77590043195488   -1.65327936869863
C         8.65467591359188    8.97173691812129   -1.53740332296278
C         9.27652637817872    8.79059334542703   -0.31716838753425
C        10.87513030113636    7.36233148940066    2.01060489646650
C        12.07429623504590    7.67977850592441    2.63661289302804
C        13.19811933184194    6.90406633932789    2.41924078590140
C        13.12970221716645    5.80478886490630    1.57871330633319
C        11.93635127312771    5.48542528435067    0.95034024644148
C        10.81110461817629    6.25827964338122    1.16846678552478
H         8.77665578664354    5.30299315414941    6.01369302876516
H         6.28676895947888    6.26496811965179    5.78900728856389
H         5.70145150735057    6.43617193927432    3.18420335153633
H         7.81762018786947    5.57778923923111    1.80015427357294
H         9.72636869521003    4.87963149090182    3.54789434989292
H         8.15619214935921    7.76385430593028    6.94870704860527
H         7.55973353652465    8.02243357680991    9.34056292661682
H         5.94068764728737    9.75269517474078   10.02086781419965
H         4.93845921736719   11.24037487420160    8.32874628088055
H         5.54794865892223   10.97833539648125    5.94021341228378
H         4.69164257029693    8.16864227715202    4.94524057192190
H         2.59341996802624    8.41543347497282    3.65828481114657
H         2.52948475607289    9.88091512660511    1.67840711980142
H         4.55579155622752   11.11150830454389    0.98320760680703
H         6.65024455152346   10.86268846335207    2.27943810306382
H         8.80974410564124   13.67897541659832    4.18117169191669
H         8.05904967342541   15.64613715537080    2.85377926374262
H         7.80327700229582   15.44335345613023    0.41169233098790
H         8.28770749614121   13.30430980696700   -0.71426991923712
H         9.04154340567091   11.35111762349875    0.62184557132510
H         9.73808561217101   11.30907717047355    6.38440974708919
H        11.67891500267243   12.05210884600000    7.75186292098608
H        13.77367978862367   12.71961341246304    6.64003442932145
H        13.95259356461485   12.65336646072366    4.18343022697927
H        12.00078494155655   11.90679750187396    2.82779162233932
H         6.59104621942701    7.92439185621905    1.54310981281854
H         5.47470799912047    8.25603718545154   -0.63458822876381
H         6.80000201088157    8.92260483953374   -2.60697872444803
H         9.23288928818963    9.27113550941227   -2.40000585078951
H        10.34040141627366    8.95348720029198   -0.20068627882243
H        12.11386276333869    8.54643511087098    3.28140007613600
H        14.12966239960653    7.15534907964915    2.90553725478055
H        14.00706531960868    5.19758518332954    1.40887721861703
H        11.88501329118906    4.63170489757921    0.28931842841361
H         9.88025390379080    6.01743922850395    0.67276698067008

