44
CSD_code = RIGBIU | q = 0 | S = 0 | Stoichiometry = C14H21AgClN7 | MND = 2
C         1.46981866488758    1.39013601435072    4.42597059683932
C         1.91767507290758    1.33280847798016    2.23326770650478
H         2.14265320692786    1.73540911142315    1.26690254581481
C         1.75238029208424    0.05509453454890    2.63713715672426
H         1.80199356221212   -0.87392649283977    2.11066308622256
C         1.82363661993295    3.56147366737090    3.31813060014032
H         1.59608453947120    3.93565949781536    4.31830758102264
H         1.10700110388757    3.97523129202411    2.60667125685149
H         2.82836822526071    3.88041766161907    3.03463947713658
C         1.23245651287587   -1.01919932516812    4.76821558486667
C         0.76212267219047   -3.20715762326512    4.87495549163182
C         0.99183750147928   -1.99255049132562    6.77905182361917
C         0.61919326636192   -4.51984410829779    2.83115067183566
H         0.74329396342237   -3.53239542469418    2.38868280556915
H        -0.29773307544871   -4.97772853833900    2.44208173220916
C         1.81627908252291   -5.42128602378187    2.52383730682743
H         2.72863674364762   -4.92880077347994    2.86613474595372
H         1.89272352818767   -5.57336337723394    1.44637369317470
C         1.65594847870636   -6.75889605696200    3.24293707493462
H         2.52901433890390   -7.38845936427755    3.06274512418443
H         0.77954721194650   -7.27942370508340    2.84926441842786
C         1.47734567098267   -6.52608861399389    4.74164262527528
H         1.30819873494430   -7.47198187098441    5.25758539012216
H         2.37970972293088   -6.06878258318401    5.15193530655213
C         0.29224748669893   -5.59051312416574    4.98622463499818
H        -0.63203900261579   -6.06379726437451    4.63504821221909
H         0.19413624175005   -5.34711499329914    6.04313163886417
C         0.69634135791606   -3.09874931003039    8.90585219944423
H        -0.13920101378103   -2.85232897158722    9.56480740992576
H         1.54866185404065   -3.40087962673775    9.51925822304874
H         0.41534845331267   -3.91523146154676    8.24744032208538
C         1.35249358025811   -0.75359051031456    8.85025571282033
H         1.83911279390475   -0.02199426469990    8.20404684548167
H         2.02141443480444   -1.00794870015587    9.67357780188951
H         0.44773969018035   -0.29676009693228    9.25749564257445
N         1.73820438806233    2.12900842737148    3.33749235892463
N         1.48437702276937    0.10619369924418    3.98316051494828
N         1.03596645999048   -2.13605620440910    4.10049094746867
N         0.73777149095987   -3.17235751843989    6.20316907470408
N         1.22452644519249   -0.85661629020328    6.07646653608124
N         0.47695172514720   -4.35871939639118    4.25784595570606
N         1.04365248147627   -1.94945915390951    8.10891324726421
Cl        0.23180142714731    2.50585431267134    8.48653568028852
Ag        0.93130704156810    1.78841456367994    6.45230323882558

