47
CSD_code = RIGCAN | q = 0 | S = 0 | Stoichiometry = C15H21AuClN7O2 | MND = 2
C         2.29910509658445   19.31084734400498   -1.06092134319553
C         2.41971630649281   20.13600342120941   -3.12970957215415
H         2.60573876390116   20.11921482419269   -4.18374664945128
C         1.99535517597093   21.13488178950582   -2.32588781993977
H         1.73511759371834   22.15259518382609   -2.52399349443042
C         3.05420213102384   17.75706864146811   -2.81857998625887
H         3.12125620175332   17.07077704561409   -1.97550852847309
H         4.03601258539477   17.85540822342924   -3.28427764751013
H         2.35216586693452   17.35933611195842   -3.55319316922084
C         1.51727031708216   21.33930934784814    0.06466937447174
C         1.12433173316434   23.32943530760879    1.00558986829566
C         0.82062909446189   21.42361193808122    2.19275216654304
C         1.54976256529576   25.38670019286839   -0.23763027954717
H         0.76594365542135   26.06416349671087   -0.59412580172451
H         1.81009887220814   24.67261217030026   -1.01675520837105
C         2.77576345419997   26.20498322486491    0.18799535719608
H         3.59034214672815   25.51830883575821    0.46573240288005
H         3.10949816539764   26.85410026343987   -0.62284917969638
C         2.02271066821555   26.31863989612315    2.38813960181293
H         1.81049404131664   27.05023181695111    3.16889940421374
H         2.81474398618903   25.63579331852289    2.73180466689533
C         0.76810849831765   25.50582849468515    2.04625184107453
H         0.46955179290405   24.87488949601514    2.88129495981882
H        -0.04628842193656   26.18906512406983    1.78115624391885
C         0.12201791867323   21.55382643108025    4.51511733907088
H        -0.88941269493707   21.28416083470412    4.83840609071415
H         0.17422604301511   22.62043898234985    4.30359671135470
C         1.12394537580388   21.15540809665132    5.60813364723084
H         2.13215421209114   21.48301056813968    5.30812513529805
H         0.85987286259571   21.62277052559237    6.55877595756169
C         1.44551233455739   19.06536835672609    4.64812610127924
H         1.40901168924464   18.00359658885819    4.88754510285543
H         2.46578756721999   19.32101135941594    4.33070726769795
C         0.46874975435825   19.38703160920570    3.51397877010526
H         0.78485636162526   18.88979172451695    2.59954406439837
H        -0.53632544371366   19.05257635537080    3.79275317355123
Au        2.41103613937563   18.16230863066817    0.56853105796922
Cl        2.57916533785233   16.84970359851449    2.39283296732268
N         2.60165305879037   19.03022555515993   -2.33527652278202
N         1.91992556614815   20.60881854802359   -1.05956398799601
N         1.50349528749758   22.64771072916988   -0.09555455072920
N         0.79163346890431   22.76142052609941    2.15916619408314
N         1.19216749250386   20.66089785818548    1.13886007852682
N         1.04928115150194   24.66337620352781    0.90738079428239
N         0.43258714933988   20.81817005975515    3.31094135326987
O         2.47048835753215   27.05301834593272    1.27110812401087
O         1.10924071921873   19.76855300325497    5.82665792379542

