89
CSD_code = RIGFEU | q = 0 | S = 0 | Stoichiometry = C40H44BrNOSiZn | MND = 3
Br        3.71733021968671    6.40974165677542    7.32333387476137
Zn        3.01053015116386    6.63761454953779    9.47818956723179
Si        1.49290930290486    9.41622347678254   10.06032218941056
O         3.71399031436595    4.77316644420533   10.35951539145109
N         2.11996476938612    7.88849296601285   10.55773659245958
C         2.00752117038918    7.42551096344919   11.87839554582949
C         0.91560502601175    6.63677744293369   12.26634800883780
C         0.87903512917928    6.08591117368417   13.53718264272732
H         0.03623758110519    5.47219421155742   13.82430389688797
C         1.88692222823773    6.32384085088830   14.45886529387050
C         2.94031521244286    7.14478924386233   14.08521975085528
H         3.71889050827997    7.36227367473801   14.80352219550644
C         3.00637504101376    7.70815648123216   12.82088636180979
C         1.84752155605433    5.70091309510416   15.82260880881513
H         0.82315825531212    5.49481773976183   16.12424831840442
H         2.30686485969772    6.35603044635054   16.55959072527589
H         2.39660795258995    4.75779840695672   15.82256197951894
C        -0.18382245467884    6.36074164730341   11.26042432127755
H        -0.23165697201523    7.23504524372563   10.60111922078964
C         0.23747527411522    5.17679192282974   10.42569521848308
C         0.53197782932502    5.33110925225795    9.07198653140819
H         0.34877934315007    6.28470138263431    8.59159126946849
C         0.92586498796681    4.24101799975743    8.30456198942271
H         1.13265611080977    4.37198225695413    7.25186327726955
C         1.03286491838522    2.98809429193922    8.88225650032116
H         1.33267772433580    2.13968376238045    8.28424766805079
C         0.73441095672584    2.82459518025939   10.22571686165126
H         0.79694567729789    1.84481515232978   10.67891575321270
C         0.34871103459252    3.91006100466089   10.99174685066021
H         0.10681057842487    3.77374043684105   12.03633392004557
C        -1.54832002480490    6.21247715660613   11.89279837545039
C        -2.45728612366464    5.25097250283374   11.47200204479343
H        -2.18786742059603    4.55891586325478   10.68725169422830
C        -3.71544940286731    5.17025518921835   12.04512600397179
H        -4.40777771408062    4.41282202058098   11.70699459259984
C        -4.08758112320182    6.05432963702189   13.04151074644971
H        -5.06805763394833    5.98881021992004   13.48951746294503
C        -3.19543916041856    7.03016894658108   13.45421063193104
H        -3.47959994311953    7.73314522745026   14.22379071107072
C        -1.94045842111721    7.11021103335303   12.88131823787736
H        -1.24924073825433    7.87429690465583   13.20714385100175
C         4.17909497392943    8.57617101653339   12.41163134037899
H         3.80632282790244    9.27060109516469   11.65016393567030
C         4.72807269077988    9.41597456551422   13.54126955653282
C         3.84671884728316   10.05823252469511   14.40576374180389
H         2.78303023569898    9.91401445096960   14.28143778733714
C         4.31578968571029   10.86860268024361   15.42225718057287
H         3.61609150776537   11.35516880209532   16.08626970624368
C         5.67759612262231   11.05941168913863   15.58791197279925
H         6.04590526531285   11.69070083224535   16.38300676564397
C         6.56131110479866   10.44173363374098   14.72156651371376
H         7.62512384704267   10.59320759274292   14.83424153222901
C         6.09047535485549    9.62977445120858   13.70340421933957
H         6.79433901513742    9.16380637879844   13.02896275181205
C         5.20364960697199    7.68136509019376   11.75767938896154
C         5.89200162169521    6.72637113189302   12.50078725207678
H         5.70702609606848    6.64461466812818   13.56236007566085
C         6.83027082472011    5.90593632993401   11.90135647890575
H         7.37715207860037    5.19078490550873   12.50027094044612
C         7.08063437041639    6.00768748212204   10.54184456842469
H         7.81511879339538    5.36727201250159   10.07504729028480
C         6.40154640891872    6.94941011986813    9.78898392483811
H         6.60786209282642    7.05047382612744    8.73299917176900
C         5.46836714117510    7.78353838432858   10.39342763876567
H         5.02063683900461    8.58747143257383    9.82176073918015
C         0.71189713001800   10.28061188186635   11.56317688875055
H        -0.03973460696850    9.65563938533682   12.03320397050085
H         0.23320474389194   11.20606605562536   11.26316785387226
H         1.45658053526534   10.52200047955592   12.31395442756504
C         0.19151517085416    9.23076232933805    8.66571805237341
H         0.58343554921679    8.65024200935361    7.83403095756407
H        -0.06866529699127   10.20852762199034    8.27303990749605
H        -0.73247035367260    8.76297225801932    8.99505276662575
C         2.85992366899332   10.52398985116147    9.30189057003160
H         3.59122242160325   10.86760404610769   10.02860903299442
H         2.41364547602907   11.40745596554478    8.85676274612317
H         3.39375298295911   10.00557774436433    8.50906032309287
C         3.63734984244705    4.34054612732521   11.72228673741368
H         2.59841866208077    4.07258984649686   11.94178521080062
H         3.93011935288828    5.17072416771802   12.36708122279572
C         4.55756375036221    3.13176885679915   11.83810745653567
H         5.58001487706560    3.45438003442812   12.03550510909350
H         4.23849986029345    2.45180993809382   12.62381617004636
C         4.45423126300285    2.52905238793416   10.44022897103456
H         3.53325300328826    1.95409703865187   10.34294761842765
H         5.29993741343227    1.89758964951794   10.18100769960208
C         4.38919033315170    3.77918189104473    9.57361591028934
H         5.39315690009236    4.14849210419583    9.33363120489653
H         3.83402338788443    3.62905617407233    8.64595984064496

