5
CSD_code = RIGGIY | q = 0 | S = 0 | Stoichiometry = C2HgN2 | MND = 2
Hg        5.99466048367738    2.27316365068395    0.76408180010710
C         3.80807990228875    2.27306541741091    0.76384373896033
N         2.66397235016268    2.27535222196678    0.76261664364694
C         8.18124038416624    2.27306831847947    0.76383658496492
N         9.32534687970493    2.27535039145890    0.76262123232075

