58
CSD_code = RIGHOF | q = 0 | S = 0 | Stoichiometry = C28H27NiOP | MND = 7
Ni       -1.52044053835525    4.23314484845486    3.22867493993140
C        -0.46137682926642    3.47042341181647    4.53458254082631
C         0.24639514353046    2.82329353425367    5.27308260328683
C         1.14876437708361    2.10622543114505    6.17924344482520
O         1.56853447234796    2.93247249640642    7.25873414621012
H         1.84705584144492    3.78184492566722    6.90037882484974
C         0.42038374798342    0.90910870060987    6.79382457628653
H         1.09270777739503    0.38480112254030    7.46829637690799
H         0.08364860303708    0.23568454630442    6.01025062674306
H        -0.43871093585904    1.26025730421756    7.35872115499978
C         2.36348604942567    1.63935256010575    5.35696757652817
H         2.87999352550159    2.49644098769380    4.92802589714453
H         2.03486822506416    0.99428075896562    4.54569843112279
H         3.05385351517785    1.09562194819207    5.99814643677742
C        -2.31150804745145    5.68413136369739    4.37675078543708
H        -2.22488019214560    5.87193131462791    5.43740608194077
C        -3.41067338072834    5.03786818574763    3.74614782875644
H        -4.25459395902392    4.58983939269089    4.24600175088737
C        -3.21578391287759    5.15201590740657    2.36893212850145
H        -3.90339143037189    4.83055089074907    1.59833524584350
C        -2.06883653836343    5.99261192976964    2.13387124161261
H        -1.78024951318641    6.38301343011522    1.16925745682321
C        -1.53458624090318    6.34883695184133    3.36334667251384
H        -0.74212559898210    7.05665660645854    3.54850265982597
P        -0.95469610045829    2.72600943805257    1.82468376585103
C        -1.98967405676737    2.56841015105383    0.33306433258141
C        -1.86605091853892    3.53979503725727   -0.65763640919497
H        -1.11917244867666    4.31544763669013   -0.54740641327872
C        -2.68459934826041    3.50758327952118   -1.76978322854919
H        -2.58261175961720    4.26092220143631   -2.53748797897850
C        -3.64101900387204    2.51169580342782   -1.89685534746468
H        -4.28417622829822    2.48893848693774   -2.76413409618979
C        -3.77544397354324    1.55089128628288   -0.90860206981797
H        -4.52366407370820    0.77779401519284   -1.00506889672659
C        -2.95731160261359    1.57887755763108    0.20767415134621
H        -3.06588767944295    0.83329313218335    0.98294311422910
C         0.71453652626939    2.89061966397743    1.12004352989370
C         1.08295848635475    2.29192095869119   -0.08128539075273
H         0.35663907693005    1.72761892995464   -0.65070248858247
C         2.37595399603147    2.43391419532849   -0.55219223758983
H         2.66133447393465    1.96856216415317   -1.48456192207129
C         3.30311657579404    3.17218052425549    0.16612356302545
H         4.31066781640980    3.27984769595519   -0.20766358115735
C         2.93569073342024    3.77896802403143    1.35637454166124
H         3.65614717185986    4.36291731551980    1.90983250225167
C         1.64400102641447    3.64174123196277    1.83082519801421
H         1.32628999153909    4.11369883778160    2.75559162399507
C        -0.97325713627015    1.03604427195992    2.50741213669510
C        -0.14284214765160    0.01418632325977    2.06758969954743
H         0.58260950660196    0.19924344247886    1.28905500836318
C        -0.23342024214453   -1.24144958969061    2.64429476479597
H         0.41944653262830   -2.03349746463618    2.30739009105759
C        -1.15181124842255   -1.48383410462858    3.65206570611916
H        -1.21456691868301   -2.46475213027141    4.09971107651826
C        -1.98088618339820   -0.46473007833402    4.09522720097750
H        -2.68956093685369   -0.64940655857223    4.88876963495097
C        -1.88719210529909    0.79160310925087    3.52851136069510
H        -2.50098196215428    1.61403666242750    3.88411762920881

