37
CSD_code = RIGLIC | q = 0 | S = 0 | Stoichiometry = C16H15FeNO4 | MND = 7
Fe        3.05278972332568    7.97783489485360    6.23681472275351
C         0.97747893998137    7.55250976354428    5.63792207671689
C         1.64245963672927    9.52816876007099    6.81088755640977
C         2.39554899947632    9.20162561973813    4.56180335322895
C         1.41211628852768    8.91488520238402    5.54546597946854
C         0.77199930833474    6.67841119482316    4.44964592803480
O         0.89881111385641    7.02798349844838    3.29012850415994
N         0.39544945697806    5.41469756650796    4.78844752175474
C         0.44270932434326    4.32992621723875    3.82273306296235
C        -0.63113535607489    3.29441200109506    4.14380011677849
C         1.82767884725503    3.71769933798868    3.80136179680516
C         2.40253220421480    3.22871328378863    4.96846736742100
C         3.68088415495022    2.70130763090016    4.95607995444650
C         4.40158151240861    2.65624777419124    3.77520752602056
C         3.83767297011923    3.14256663380478    2.60885650501724
C         2.55940589199763    3.67244419096682    2.62335480785018
C         3.01992738371613    7.05796272096883    7.74978401954898
O         3.01675199348183    6.44625038894523    8.71619353022146
C         3.80953711469805    6.75077586006623    5.19641354847974
O         4.30688469396448    5.97370778221098    4.52648552784546
C         4.51450059618971    8.92009928775646    6.57315655706140
O         5.46429930259853    9.51524140787658    6.79203708840174
H         0.23901951553141    4.78899739367174    2.84989651286238
H        -0.62249230211380    2.51134595095029    3.39039323996811
H        -0.44812399391004    2.83893844115926    5.11473226992913
H        -1.61261134722172    3.76213291263318    4.15450525342783
H         1.85323169670272    3.26004242850580    5.89982446418275
H         4.11629101347547    2.32807194579213    5.87174060529064
H         5.40123683368155    2.24784582879331    3.76652919728533
H         4.39748894512575    3.11650329380405    1.68562592696690
H         2.12690763648068    4.06502214915477    1.71478632993970
H         0.94782017791966    9.32032584277422    7.61776902419000
H         2.00203473078428   10.55115154916106    6.82036366601772
H         2.30110794357352    8.72385600104887    3.59596231661064
H         2.77531360106304   10.21637779026526    4.51132076524279
H         0.30183345743753    7.31498694419823    6.45992591952026
H         0.44185799038376    5.14673050993088    5.75957745718414

