64
CSD_code = RIGNIG | q = 0 | S = 0 | Stoichiometry = C29H31ClIrNO | MND = 8
Ir       -0.40867751436347    2.32105388237791   10.13159396658318
Cl        1.75490710736233    2.76921326578883   10.93049123937023
N        -0.54554896019377    4.27577418363942    9.63715917806584
O        -2.99614670249184    7.57792351110593   13.37007103762100
C         0.39554845969986    2.34905950528655    8.27420349504290
C         0.91008002411981    1.28757810263761    7.57821028537083
H         0.93010489749404    0.30017936363255    8.01536399770019
C         1.44068595533553    1.43529134847693    6.27807099641969
C         1.94388561306343    0.33671227240811    5.55043651859534
H         1.91940238933520   -0.64207159713092    6.00795070914320
C         2.45460361179652    0.50223608016401    4.29365063072160
H         2.83909385262102   -0.34557327845147    3.74524740288835
C         2.48723438887638    1.77553264319374    3.70082576295913
H         2.89499696235499    1.88672693460297    2.70667309526419
C         2.00958253128919    2.86095761499952    4.37789631836008
H         2.03281406543965    3.84390420402984    3.92853038518510
C         1.47523827105052    2.72433848288598    5.67828850544546
C         0.98744094055898    3.82158961614569    6.40408396933779
H         1.03902203720393    4.80458383685234    5.95792517444460
C         0.45739431813379    3.64561503042178    7.66532106133861
C        -0.05966217686645    4.69798421932668    8.50697278627706
C         0.01762243915739    6.13669680392898    8.11309146594214
H        -0.64820799019111    6.33139941044133    7.27300114325826
H         1.03344827730256    6.36811675098560    7.79870529730832
H        -0.25491531016330    6.78682337327060    8.94013614577597
C        -1.13368268665133    5.13443958724025   10.58011759539780
C        -0.58172126709694    5.24705932429851   11.85208027962938
H         0.32082390397953    4.69950715701486   12.07869086266346
C        -1.16956546672044    6.05565205340209   12.80662274897687
H        -0.71033568800768    6.12749028781960   13.77976253928274
C        -2.33216249168533    6.76049924534259   12.50760602755085
C        -2.89123837111197    6.64008290790836   11.23348144148606
H        -3.79510027789056    7.18720945543281   11.01687871722822
C        -2.29945194359243    5.84136369521000   10.27994954318215
H        -2.74165252571323    5.74562804592595    9.29890802046475
C        -2.48059822334672    7.74765773159735   14.66820984845910
H        -2.45883373577445    6.80207279617158   15.21963277176438
H        -3.15948648687623    8.43770477964748   15.16660352318316
H        -1.47533785810149    8.18044725198972   14.64867202453753
C        -2.46798941224435    1.49018193243600   10.22778781298842
C        -1.56228842784410    0.39644317336874   10.03914168832999
C        -0.68306866764295    0.38325484985640   11.15738263905677
C        -1.17457709809085    1.35338528818206   12.12328468417658
C        -2.27205437328240    2.00682554655427   11.56724339701664
C        -3.66340174119517    1.77033953849669    9.37226233399811
H        -4.50390421141614    1.14923763451582    9.68969213808256
H        -3.45238132800899    1.54927500012266    8.32826461871165
H        -3.96725847012712    2.81239047582697    9.45109888218874
C        -1.65370476580328   -0.61468832986686    8.93901640246137
H        -0.78199073746724   -1.26320210769128    8.92983070557902
H        -1.74013462597449   -0.13885675819601    7.96399903661208
H        -2.53763763301550   -1.23608642182306    9.09414542145152
C         0.34500167709571   -0.65385035096950   11.48814032115462
H         0.68238335212009   -1.17466925560472   10.59535216450892
H        -0.07273579236259   -1.38744692684729   12.18086347322464
H         1.21064398130958   -0.19339284762883   11.96032306141866
C        -0.60526342196628    1.51544627157586   13.49402553574074
H        -1.07288114697234    2.34645115291120   14.01689404015637
H         0.46710308460346    1.70137041273642   13.43853266542100
H        -0.76066570300701    0.60594685978856   14.07671635022408
C        -3.18207671721276    2.98299637794505   12.23832088001663
H        -4.03896063654831    2.45587908905357   12.66336173574274
H        -3.55858768801149    3.72280419375994   11.53445577341907
H        -2.67327386626579    3.51170532148890   13.04124772609694

