93
CSD_code = RIGQAZ | q = 0 | S = 0 | Stoichiometry = C48H38Cl2N2P2Ru | MND = 6
Ru        4.36051516789328    0.35510831471428    0.15006371662140
Cl        6.07359053370042    0.81670523918894   -1.45286770817454
Cl        2.69173161327303   -0.13111317886282   -1.48892053588072
P         3.63209297673266    2.56120452202214   -0.00049301458030
P         4.89062772296615   -1.90846668323934    0.02487580549145
N         3.05634649466658   -0.00759580515230    1.59816738722324
N         5.57567456409032    0.71232013708652    1.67940297258855
C         1.78309495339995   -0.36699287598247    1.52018346396663
C         0.99400335668383   -0.59034772127300    2.64328321756602
C         1.52566510979013   -0.44069449847517    3.90527083814122
C         3.54641158388392    0.13104546673010    5.26055176095315
C         4.85094265006186    0.50425397176566    5.30479018212475
C         6.95118351612931    1.11243439320026    4.09386522045334
C         7.56186721511961    1.29211506038313    2.87144367575077
C         6.84938496304560    1.08472226623060    1.69497035694523
C         4.95803532064259    0.53428518696813    2.87630304384673
C         3.59529789446970    0.14505282575084    2.83149756474475
C         2.87101254969350   -0.06031629832179    4.02326619354031
C         5.60284000608942    0.72106041781456    4.11566312990076
C         3.15785433223663    3.30336491306853   -1.59467538726848
C         3.56568644280897    2.74492191708311   -2.79820601225311
C         3.22516871514130    3.35717966576023   -3.99226343491844
C         2.48715564540938    4.52742296937631   -3.98940786958994
C         2.09187050899790    5.09538663633404   -2.78749515095704
C         2.42840261043522    4.49106772523693   -1.59256810140579
C         4.71081520348647    3.91259688778008    0.59208255699169
C         6.03475242643021    3.87415318987117    0.16123719975961
C         6.91693671537228    4.87496552704954    0.52322062807321
C         6.48358645847709    5.92953931261757    1.30952998978495
C         5.16081256001825    5.98745182309979    1.71569343403301
C         4.27335960291653    4.98853328712330    1.35682083923466
C         2.12141827256345    2.72565459875930    0.99526865764190
C         2.21358982668563    2.85629396154270    2.38012441520677
C         1.07166802927712    2.84007917585271    3.15827068026467
C        -0.17002269169646    2.67480158555508    2.56537370762523
C        -0.26478929571764    2.51032037866148    1.19344931964279
C         0.87504158987925    2.52633067228061    0.40970166319844
C         4.92794671745792   -2.80028236990254   -1.56327662884544
C         4.95916752429818   -2.12650914973530   -2.77615084984245
C         5.02306257310372   -2.84157512118553   -3.96009423916512
C         5.06313551022506   -4.22422085265064   -3.93802405480721
C         5.04450323722085   -4.89932555406346   -2.72660161856695
C         4.98131925341176   -4.19320410146237   -1.54202924202596
C         6.49665095169626   -2.48407407958038    0.68140862472901
C         7.61549155130188   -1.75515393273876    0.28516943232797
C         8.87869171085429   -2.13017184164260    0.70286846473175
C         9.03896965796521   -3.24321981361704    1.51140534733154
C         7.93284601549961   -3.98907891857605    1.88306038995078
C         6.66604094469854   -3.61796252131326    1.46858231322155
C         3.65726332195726   -2.84093949262548    0.97916672577077
C         3.75328827575824   -2.90413022883695    2.36842702675923
C         2.74726936215390   -3.49455177310265    3.10939146134792
C         1.62858895614555   -4.01019215953044    2.47429624458446
C         1.51252323256662   -3.92042610955617    1.09715049129159
C         2.51732769481316   -3.33181391731520    0.35036492447818
H         1.37763196573111   -0.48204555683569    0.52350343324441
H        -0.03521200993170   -0.88094683613851    2.50631682311069
H         0.93177616610814   -0.60883755174923    4.79052821999627
H         2.98900702104475   -0.02893091942372    6.17196552310462
H         5.35105796628091    0.64704584973160    6.25157009013911
H         7.48412785087291    1.26656542485513    5.01949031787361
H         8.59512750349716    1.59420849964227    2.80860043176391
H         7.32096504745191    1.22338356120374    0.73217680173794
H         4.14072729377611    1.83087515397937   -2.80217923767463
H         3.53774906575051    2.91569017845048   -4.92681177418913
H         2.21929737741554    5.00255677962778   -4.92210831381071
H         1.52049424461835    6.01274895544315   -2.78333256420931
H         2.12147366031204    4.93457624135455   -0.65464483324645
H         6.35858697548044    3.06166185548252   -0.47580861550760
H         7.94242192392880    4.83488777294089    0.18636363062692
H         7.17078314998032    6.71205704701679    1.59674632486116
H         4.81434396437992    6.81921657096087    2.31258964367628
H         3.24186318109830    5.05462945837447    1.67288754765488
H         3.18580989517542    2.96814891423844    2.84593795686335
H         1.15132871255797    2.95059190698552    4.23057448227777
H        -1.06112074739156    2.66399333957445    3.17573462188484
H        -1.23027184227855    2.36255396534183    0.73227799953304
H         0.80976786543327    2.37415981629661   -0.65879203061538
H         4.92591389610849   -1.04748933006103   -2.79680653152821
H         5.04045284538831   -2.31368445398713   -4.90192699557379
H         5.11060269756310   -4.78086662571085   -4.86286155434852
H         5.08020248904175   -5.97933181840683   -2.70714028562697
H         4.96715213449627   -4.71917472714254   -0.59667474733519
H         7.48498248560335   -0.90389574689415   -0.36987290637830
H         9.73964480980594   -1.55635348613249    0.39262800247352
H        10.02414982662767   -3.53758224789572    1.84280074874955
H         8.05601100882286   -4.87012229152832    2.49693530690268
H         5.81504539013357   -4.21759391164086    1.75939556103277
H         4.61916487455155   -2.48489515155235    2.86749612883698
H         2.83370380626651   -3.54718860150468    4.18557872600836
H         0.84431336793049   -4.47228998125522    3.05578939781490
H         0.63285832277353   -4.30548755622702    0.60259707804591
H         2.42145417737128   -3.23744752750288   -0.72241362769989

