46
CSD_code = RIGRAA | q = 0 | S = 0 | Stoichiometry = C20H18NO6V | MND = 6
V        -0.58930069134417   -0.04099673917574   16.90815685997702
O         0.38728388951903    1.33439351991438   16.16525548655331
O        -3.75423014573745   -2.17564251957010   17.72973325753253
O        -2.01573650779573   -0.82303429586590   17.49605895024015
O        -0.00814103636164    0.34061333200601   18.40390525410585
O        -2.14800183262637    1.99616988716459   17.50245512309182
O         0.22677267446534   -1.18593294549610   16.31431131397433
N        -1.67184179377063    0.22499315953896   15.16981264536476
C         0.95988159623570    1.24788072807147   15.01910780684373
C         2.21112722686283    1.90298150335011   14.80999094744927
C         2.86134269607701    1.80734278828932   13.62262882523027
C         2.32879630513258    1.05863633235966   12.54091645177213
C         3.03752845630346    0.92678490209989   11.33427438933576
C         2.53183334419007    0.18351798119695   10.30024001447159
C         1.30119787355511   -0.46101400239815   10.45052659862764
C         0.58668974190344   -0.34376411048723   11.61672512295790
C         1.06743624168704    0.42894455937203   12.68835807699606
C         0.35393893328089    0.57640085372779   13.92532820694341
C        -1.01721114231408    0.24897708888015   14.04826946910191
C        -3.06337657156141    0.23042230487399   15.12416968380652
C        -3.73991971878252    0.99919146413270   14.16868399174714
C        -5.11988585115340    0.99271757524620   14.10171659948498
C        -5.86112570437914    0.21384144369555   14.97715708814285
C        -5.20944323670593   -0.53005380873571   15.94284708358192
C        -3.82324804469151   -0.51724471353400   16.03452696558394
C        -3.17580495194375   -1.27287442604145   17.16185036075977
C         0.87544852065083   -0.10135347783780   19.34827795223100
C        -1.90559676121005    3.30344240511520   17.02487358924092
H         2.62997058636290    2.44883849407651   15.64333278040546
H         3.81773240292813    2.29262959099885   13.48605039188526
H        -1.81672755175485    1.93696774716739   18.40902958276433
H         3.99554954926173    1.41754660375184   11.23993828476186
H         3.08133637123887    0.08349096404391    9.37641106387065
H         0.91437727232936   -1.06364866901389    9.64200553143814
H        -0.34504287760553   -0.87832749365522   11.71739201734851
H        -1.57625580314456    0.08308178510369   13.12260234286553
H        -3.17303985648868    1.63129645783857   13.49809940953543
H        -5.61925497110908    1.60102482320021   13.36175672020614
H        -6.93843589935706    0.20159381026193   14.91517470901013
H        -5.75564368178972   -1.13423016340632   16.65168899401505
H         1.22440842840784    0.73018373221434   19.98030575038003
H         0.37456962287041   -0.84748992274805   19.98607974647499
H         1.73591637935402   -0.58344256819724   18.85669227831455
H        -2.32486500477644    3.35584350751693   16.02003192472910
H        -2.40415108524772    4.04707993616320   17.65699293880856
H        -0.83395739096489    3.52322057479159   16.97705741803835

