104
CSD_code = RIGRUW | q = 0 | S = 0 | Stoichiometry = C51H47BClNP2Ru | MND = 8
Ru        7.26294410672134    8.28802132706967    9.79765391187160
P         7.14091527995847    5.99834541816755   10.05760953427409
P         8.89906797193598    8.33334055873620    8.22065558140918
Cl        5.57782624166673    8.24258883732980    8.09370937389454
B         7.12290386630860    8.71395783893092   12.16219530788877
N         6.04082227510587    9.41327240452819   11.45151092165032
C         8.41501943185173    9.24471183424977   11.53780753041389
H         9.45718777823970    9.12485432982024   11.81373312604092
C         8.02782295572158   10.23529965855113   10.60039813472703
H         8.68025097073717   10.92906937775487   10.08164047901325
C         6.62875208686998   10.24512565936109   10.49683075061786
H         6.04241135039938   11.00156645831674    9.98893455532471
C         4.66234319207162    9.68152559471234   11.86970952837763
C         4.67724299392763   10.98719084927957   12.68411713111046
H         5.32510672614333   10.88076901696073   13.55294215095832
H         3.67208302083576   11.22167874913120   13.02573106533211
H         5.04023897157927   11.82082303830464   12.08535303290489
C         4.14587959926572    8.55396545256752   12.76395170671106
H         4.70410466233675    8.51495865433195   13.69545739031396
H         4.24197704470876    7.59404346454630   12.26439377804574
H         3.09680548072480    8.72157729020154   12.99636552881556
C         3.73697366236574    9.83029380872131   10.65445855405372
H         3.95133479243374    9.06231763768695    9.91350301500009
H         3.84752651637379   10.80231722844722   10.17785726138679
H         2.69927267989624    9.73082826896627   10.96215530583459
C         6.94754298521453    7.64087479842742   13.20761680715432
C         6.85902301743412    6.73502319096662   14.00709325096500
C         6.68341247909349    5.66899123237442   14.91564491319153
C         5.43554797873822    5.45145400447228   15.50423708830258
H         4.61656185565649    6.11596019543966   15.26815099418165
C         5.25485825505073    4.39198764603249   16.37116302824943
H         4.28741307766657    4.22783433246839   16.82429171060169
C         6.30742018466562    3.53691847522803   16.65885054355903
H         6.16087041685116    2.70738408347184   17.33511662414051
C         7.54758359995632    3.74781215595107   16.07674643215420
H         8.36837475516537    3.08091317218311   16.29927460776280
C         7.74077321209532    4.80721202623984   15.21230665904602
H         8.70328845741548    4.97459356896174   14.75129646350802
C         5.58168636210399    5.47339151260829   10.86838988479930
C         4.38671279879769    5.97689266440798   10.35518269633958
H         4.41193511431163    6.68065080087961    9.53321037827799
C         3.17150748125377    5.60306660229061   10.90103046894135
H         2.25448600145307    5.99371318877491   10.48401018738546
C         3.13343732325443    4.74521534813757   11.98756267084238
H         2.18635571877160    4.45552111761982   12.41889662574567
C         4.31738305079853    4.27305022563734   12.52766276899976
H         4.29929363313795    3.62147183700814   13.38942927060066
C         5.53406672266844    4.63070182281290   11.97405931661561
H         6.44301803089595    4.25450532428681   12.41693467232831
C         8.37497806430026    5.08739209557216   11.05488604028596
C         8.38303441066787    3.69349855291305   11.08636792656341
H         7.65810817346533    3.13940632613749   10.50546806599663
C         9.31681212915421    3.02040267736678   11.85080971456178
H         9.31503927514958    1.94011079728267   11.87148012447501
C        10.25481318975889    3.72636379961296   12.58883763194907
H        10.98510003201446    3.19536286184561   13.18235762314220
C        10.25013420918436    5.11025920604268   12.56328291759416
H        10.97767172001343    5.66777002977905   13.13606972253947
C         9.31178022938611    5.78578513031720   11.80168229953628
H         9.30140247681278    6.86437281106500   11.77545411339247
C         7.13338628748254    4.93179563558413    8.56190568149817
C         8.33389459261210    4.38590926328083    8.11030210701939
H         9.24725092158456    4.56502939552257    8.66044364442507
C         8.36832740324521    3.59532301856672    6.97871251847814
H         9.30502799507992    3.16762249113064    6.65203800460961
C         7.20682381806479    3.35655485229544    6.26336392658210
H         7.23295957634906    2.73742468555907    5.37871301147890
C         6.01562283098615    3.91891809838804    6.68633787321177
H         5.10722320062750    3.74541075818909    6.12795743144551
C         5.97601555514649    4.70129104638730    7.82695547543020
H         5.03832574119907    5.12921609664044    8.14349023840965
C         9.12046211828952    7.15619745701175    6.83701935031854
C        10.34626804888700    6.62243124485706    6.45611924383550
H        11.23299139049482    6.80950351943489    7.04529255126136
C        10.43566426647080    5.84524865781945    5.31470981999960
H        11.39131810100341    5.43132894672071    5.02504565573078
C         9.31344862932345    5.60607653926239    4.54060608853652
H         9.39240565320734    5.00393344521251    3.64712416504801
C         8.09183757765742    6.14294604536377    4.91246894955647
H         7.21403553854970    5.96310253646399    4.30996370618814
C         7.99435620083731    6.91451039398890    6.05388328788393
H         7.04272822374951    7.33374529490892    6.34948838687278
C        10.53493747404579    8.35924414993489    9.02333274523688
C        11.02117608210279    7.15755548496327    9.53203979579000
H        10.45207115721069    6.25339089432569    9.36415954658687
C        12.20352602988346    7.12084969888662   10.24521968771016
H        12.57074562610965    6.18020039995192   10.62953976198870
C        12.90864371679293    8.29212641324228   10.47345305528915
H        13.83139749487717    8.26906322021171   11.03444303940332
C        12.42351930566390    9.49460509482768    9.98662093127460
H        12.96739294595089   10.41014565166287   10.17044003748699
C        11.24140435950881    9.53188184162038    9.26794811960279
H        10.87128190719908   10.47532041540556    8.89090980760488
C         8.94897353573200    9.83541748711789    7.17299398282182
C        10.06971492609619   10.09613430628074    6.38692626675012
H        10.91291857088215    9.41930890804055    6.41559667941299
C        10.10257701310740   11.21416100135764    5.57661909052403
H        10.97688159260623   11.41609956059195    4.97459993692157
C         9.01477342851165   12.07316788678117    5.52987579544871
H         9.04405035360773   12.94586362127787    4.89382010181819
C         7.88956114043502   11.80431428952191    6.28906508187535
H         7.03421320585768   12.46255008714913    6.24117615345538
C         7.85586754767333   10.68821836972443    7.10754714391480
H         6.96965883477720   10.46165542317881    7.68400322026128

