69
CSD_code = RIGSEG | q = 0 | S = 0 | Stoichiometry = C28H30N4O6Zn | MND = 4
Zn       -0.28737205305007    4.52034457972581    4.61341949638515
C         3.02385444814527    2.54327811147451    4.71393016476248
C         3.98436660806309    2.79227255181559    5.70904740973039
C         5.15917543459130    2.03797292405791    5.71934208567339
H         5.88794093021103    2.23878154841854    6.48945252269597
C         5.37049554437335    1.06069388104235    4.77005682997779
H         6.28322754189011    0.48276499080934    4.79538474389114
C         4.42010368335633    0.81152307859810    3.78794391750923
H         4.59159273581189    0.04218577684877    3.05026131843742
C         3.25664366091738    1.55097885970840    3.76474941847636
H         2.49635809401965    1.38228726748971    3.01741346019672
C         1.76409260700034    3.32093694797817    4.66216377941481
C         0.07691919175668    5.79776284636435    1.96170848433634
H        -0.78036687119502    5.17237851549754    1.76439789760821
C         0.74775443653247    6.41597451194024    0.93401792680498
H         0.40407849727177    6.26172782058074   -0.07419522489940
C         1.87151722313534    7.21850693608229    1.20961754543240
C         2.21390578472177    7.33506407189895    2.57102065458845
H         3.05484253714067    7.92761366382009    2.88811497415529
C         1.47238357213884    6.67686950907869    3.52269119312359
H         1.73222491078283    6.75407006994023    4.56847126233011
C         2.19427032960153    7.68263911219386   -1.15164225747445
H         1.16814592605450    8.02159030041204   -1.31584788409428
H         2.85151513567012    8.27896105682049   -1.77908432230787
H         2.27308534987580    6.63797237370654   -1.46683496858402
C         3.75418316546823    8.60537073546469    0.55491634060393
H         4.50062267566841    7.98335262307195    1.05701676360653
H         4.19584658977996    8.99531303990677   -0.35833581454970
H         3.50939114411485    9.45119266517472    1.20357002387335
N         0.41751352673855    5.91465502717913    3.24360876223422
N         2.57195753452915    7.84266634568727    0.23241606447832
O         0.93889549751257    3.12145081680943    3.75057918104721
O         1.54374139125415    4.21027485386571    5.54292348930711
O         3.80887084482434    3.73613193676002    6.64546728813530
H         2.91199170416016    4.12713755609830    6.46966867774214
C        -3.59814155580614    2.54207734586191    4.51036206666978
C        -4.55880554547895    2.79302958124068    3.51586929863161
C        -5.73460645401920    2.04028924434495    3.50560553810684
H        -6.46352516003727    2.24273585501751    2.73607140869845
C        -5.94694893895067    1.06292456134104    4.45456527737360
H        -6.86102422485892    0.48710078594485    4.43004110525211
C        -4.99654841836502    0.81202632096092    5.43623303910076
H        -5.16909889036849    0.04300625416894    6.17400015442358
C        -3.83196561071712    1.54971902687751    5.45920911809124
H        -3.07156579961473    1.37954632412336    6.20610110220007
C        -2.33745217959378    3.31821564665661    4.56214006146688
C        -0.65693851055017    5.79343412891423    7.26768188803747
H         0.19949202787240    5.16718650653311    7.46602503402772
C        -1.32902975790962    6.41160487009826    8.29460870446471
H        -0.98653644676738    6.25744278533150    9.30324079100201
C        -2.45258684681040    7.21401076995782    8.01771899672696
C        -2.79458563914757    7.32896984393604    6.65608496777739
H        -3.63573814201186    7.92070634405909    6.33806205181975
C        -2.05206897113321    6.67065763028884    5.70530720103750
H        -2.31128649611412    6.74700172953743    4.65932102588641
C        -2.77379229004355    7.68457374132527   10.37799394049657
H        -1.74707768000869    8.02290796563077   10.53983237807872
H        -3.42965848599450    8.28390754707757   11.00401191239391
H        -2.85348329916865    6.64116490318673   10.69705301264346
C        -4.33332784442046    8.60478153273443    8.66968245307550
H        -5.08115726856516    7.98337732083502    8.16893025691249
H        -4.77413800818125    8.99764085624651    9.58209254313252
H        -4.08664626957380    9.44866672629380    8.01919617025127
N        -0.99657600144147    5.90972655430829    5.98549474223267
N        -3.15294751034355    7.83992494045654    8.99382457556327
O        -1.51176796228049    3.11686922612741    5.47281608559764
O        -2.11734833087516    4.20896010285653    3.68270167027672
O        -4.38222833884176    3.73675692903855    2.57952391899260
H        -3.48515848277843    4.12715919238620    2.75586630492372

