68
CSD_code = RIGVAH | q = 0 | S = 0 | Stoichiometry = C23H42NiP2 | MND = 4
Ni        6.14760155999138   12.39643178809699    7.66426910796474
P         4.37758181176951   13.44610740537599    8.47009721114719
P         7.20639061347490   12.50472933785963    9.57036166102740
C         6.07574218350625   11.97662948086790    5.68851510749379
H         5.46756955300793   11.08765137361518    5.53038842037737
H         5.79742514208912   12.82788860204188    5.07441481723841
C         7.36960939854707   11.85517047927308    6.15204460260759
H         8.09490171881148   12.63663448429496    5.93513201125450
H         7.79525561141198   10.87502870451642    6.35103207191758
C         2.64886467935527   12.67278113325377    8.61655503042924
C         2.92286083844986   11.18336023553905    8.85218000003303
H         3.50007791576459   10.77979163239623    8.02078119025798
H         1.98810661593554   10.62838756943574    8.92143428322557
H         3.48240051760655   11.01544303862054    9.77110070837781
C         1.93449821203638   12.80058374851343    7.27142886972252
H         1.54051764285690   13.80302314061703    7.12520551008763
H         1.09740516319128   12.10415341629680    7.22456596862694
H         2.62053391364356   12.56276496844201    6.45923294023478
C         1.74906903114106   13.20404793931437    9.73023729308893
H         2.15729926617054   12.99601436522067   10.71565095658327
H         0.77930618799925   12.71001552702225    9.66527526053900
H         1.58470979209501   14.27287557250567    9.64380330040050
C         4.24246658136783   15.24246961176112    7.86635901436551
C         5.62857896872500   15.83214434657638    8.15030144682867
H         5.73401490880509   16.11148560596094    9.19550938919736
H         5.79505889405566   16.72491126707675    7.54834166228180
H         6.39843189724159   15.09681334098168    7.89212434371250
C         3.16703191208294   16.11605308636429    8.50239931998855
H         2.17231678294248   15.81416393281335    8.18425445432480
H         3.31508378713462   17.14937178314957    8.18727627342971
H         3.21204176452059   16.09285724498264    9.58929587317762
C         4.06474706083686   15.22935350673584    6.34747701497934
H         4.81612527196839   14.58045795861732    5.90241389222833
H         4.19943431399457   16.23441586067849    5.94766513202816
H         3.08169698159396   14.88011555030569    6.04953077763670
C         4.76818579344792   13.67184494781277   10.28858357334767
H         4.26796546976718   14.55969183148873   10.68202806606407
H         4.33134104015102   12.80168763486065   10.78387406560914
C         6.26112746757715   13.70685883450456   10.62520553429417
H         6.40724476998565   13.47138394066763   11.68402218291456
H         6.67421781230263   14.69857563563412   10.44113310053324
C         8.99674693462033   12.95201486886675    9.93649213626823
C         9.30552908481801   14.17979000072882    9.07805715374484
H         9.00635696184833   13.99407609109064    8.04664499482811
H        10.37140359275277   14.40304125225346    9.09311170303393
H         8.76998781598629   15.05691665351108    9.43763811975929
C         9.30994396744360   13.24852660544194   11.39913411112046
H         8.77311294098251   14.12699151967636   11.74955797871691
H        10.37681016335606   13.44212001793190   11.50744072775595
H         9.05970062703791   12.40821074792537   12.04291416542545
C         9.83299845408052   11.77210031900193    9.44026598421494
H         9.70263317102942   10.90112165929870   10.07833693157353
H        10.89119354572814   12.03033491825064    9.42440351825833
H         9.52892479775367   11.50033249412873    8.42952088788210
C         6.92028323752441   10.97379432844772   10.59371603316303
H         7.54653083213137   10.97027003339484   11.48766547639756
H         5.87302343835094   11.02700393199789   10.90864035993104
C         7.11411559308054    9.73303106096261    9.78004261350892
C         7.92862833332374    8.69449132304133   10.20905813532097
H         8.44832638918499    8.77346509671871   11.15491123139849
C         8.07960536729119    7.55460061314325    9.43753371659092
H         8.71915996372375    6.75466591277117    9.78211070830039
C         7.41529356813216    7.43967663121152    8.22945868393913
H         7.53482916928775    6.55071207814748    7.62758447631825
C         6.59913801265776    8.47118166996291    7.79311390618115
H         6.08177798177016    8.38722918130888    6.84840462390586
C         6.45210969723443    9.60847434132644    8.56353740578252
H         5.81019751154466   10.43135678535832    8.21910277708125

