58
CSD_code = RIHDUJ | q = 1 | S = 0 | Stoichiometry = C20H31N4O2Zn(1+) | MND = 5
C         2.20638959739857    9.67479963627579    6.28731207730483
H         3.24992119460510    9.94894882663042    6.33902490991033
C         1.22144804871260   10.62437564213857    6.09309375584628
H         1.48176372793783   11.66372785857637    5.97777138799473
C        -0.10227017930393   10.20782653073854    6.05556004075858
H        -0.90008937607531   10.91866192626713    5.90625194711710
C        -0.38125177420554    8.86244092086630    6.21978862078766
H        -1.39702005052503    8.49989130646948    6.20547094610670
C         0.67053860096092    7.97617079915680    6.41940840021969
C         0.42284408035177    6.51592290586742    6.68127237735737
H         0.15530426591778    6.42798908279510    7.73917141814120
H        -0.42177787144755    6.16437956701418    6.07678592595293
C         4.14082743960858    4.56896679558219    8.99771765877766
H         3.08921632934039    4.41516695948472    9.19124018604954
C         5.10991431010927    3.90574583795652    9.72663335912385
H         4.82824802266499    3.20744009230640   10.49741411012326
C         6.44403277725646    4.17084291341889    9.45001274231564
H         7.23019630072727    3.68104213245706   10.00307657364792
C         6.74832667327959    5.08174664067464    8.45381093450590
H         7.77245389388749    5.31988237803621    8.21331708855663
C         5.71104317957824    5.70290782547395    7.76861679000724
C         5.98187930186435    6.74402333213323    6.71759394869728
H         6.19581470390333    7.67836208362719    7.24591968409810
H         6.86520162950789    6.46312750867103    6.13172224134783
C         3.17333781907637    8.08854888610342    9.37352492883048
C         3.15629898080942    8.83726019601946   10.68655111956443
H         2.36776622962232    8.40588067787249   11.30947735563528
C         4.51732222960071    8.67198756554097   11.36885889801562
H         5.28842749393612    9.06669874316831   10.70413622761497
H         4.53347614213933    9.24605944854269   12.29523731048304
C         4.81611449028285    7.20691207036079   11.68049581741002
H         4.74638108889025    6.62374406343369   10.75816829225457
H         4.06014769534949    6.82301217664799   12.36895010402520
C         6.19954247554974    7.02680546871178   12.29188502922879
H         6.96857282777870    7.37849878317950   11.60743092695285
H         6.38800988449824    5.97873939009024   12.51274282721454
H         6.28178536865537    7.59120528596485   13.21724374099720
C         2.81949148064797   10.30240716252724   10.36763614941174
H         3.64906293529152   10.73634240098700    9.80566203668635
H         1.93625414601662   10.31983734827168    9.72133182390226
C         2.53457847269206   11.14544743803117   11.60816305799777
H         1.74196403053118   10.67302289934643   12.19174796639898
H         3.42584796753587   11.19828538255793   12.23384586709713
C         2.11109885006550   12.55913911666617   11.22779037268780
H         2.89171416911290   13.04876682938559   10.64994252411622
H         1.92273735905344   13.15176555063739   12.11900576818734
H         1.20192645464558   12.54056324063490   10.63048202563821
N         1.93695744142353    8.38121236299717    6.44124794170431
N         1.63784307414932    5.72912269672607    6.46060409404466
H         1.76398106754783    5.57668160886376    5.46381766786994
H         1.53351490722419    4.81728421939687    6.89293644543574
N         4.43452388723791    5.44407163494070    8.03934905944689
N         4.79973888045741    6.96393732714410    5.88187918579413
H         4.72633165388469    6.21520257977096    5.19871346436475
H         4.90654080790047    7.83157114317837    5.36698801424076
O         2.29822786123105    7.22456190983195    9.12104863453491
O         4.05315042880804    8.34566621217683    8.51523316197331
Zn        3.18857657230363    6.96776867768842    7.33238503548485

