34
CSD_code = RIHGEU | q = 0 | S = 0 | Stoichiometry = C13H14BCrNO4 | MND = 9
Cr        0.98212491027237    2.06301730164728    2.52787098086469
O        -1.02933538134627    3.41042013383380    4.25850222103666
O        -1.02167618928329    2.94016959372085    0.51478623371372
O         1.83696294311653    4.80785069224619    1.75597576248484
O        -0.36421611207513   -0.33466177824356    4.41733284788037
N        -3.46161755021568   -0.31630764784512    8.02847417230720
C        -0.21721366384974    2.89636954073981    3.60890117378986
C        -0.23760097378832    2.53791479465518    1.26725697486776
C         1.56647642791286    3.72751015814399    2.07320173950551
C         1.92923930670990    0.19818912898756    1.46893485280163
C         0.84189281799793   -0.24534481980214    2.22601719249454
C         2.95492130783915    0.95989954043187    2.04090061922115
C         2.98401806608924    1.24773385680447    3.42285852167286
C         1.96640455409231    0.84927201432838    4.27838869166533
C        -0.69911595777940    0.00020436395296    5.62030639691280
C        -1.91375921913677   -0.39037830857263    6.16923305772694
C        -2.30669543704814    0.00537167955996    7.42554371009860
C        -4.45680826199148   -1.10978429664591    7.34988024444060
C        -3.82718222193868    0.24062833877449    9.30288255523790
B         0.79558457974147    0.05471728935222    3.70875658513183
H         2.01045232110486   -0.06620626534084    0.41757684612677
H         0.09459772695269   -0.84740048224119    1.71778657387750
H         3.80613556908267    1.24481223453187    1.43188569912451
H         3.85776657683360    1.76445787355424    3.81251649531419
H         2.10230986670341    1.07973133726898    5.33300313752974
H        -0.03222842252944    0.63241622314902    6.20445202036015
H        -2.55293977694086   -1.00227201627598    5.55317537152506
H        -1.64072665758450    0.63036582489649    8.00332693424346
H        -5.28767661424302   -1.29940476108323    8.02472021883029
H        -4.03330970100605   -2.06652476963231    7.03949452307424
H        -4.83413166608863   -0.59253104253046    6.46393108930262
H        -4.68256365228244    0.91512045500208    9.20055879451689
H        -2.99414928920694    0.80080792218087    9.72081793797408
H        -4.09734022611850   -0.55626410954769   10.00034982434334

