61
CSD_code = RIHMUS | q = 0 | S = 0 | Stoichiometry = C24H24Cl2N4O6Zn | MND = 4
Zn        0.71968262711485   -2.59928257358201    8.14697557737520
Cl        4.47676247951066    2.17855419260022    5.03970894182982
Cl       -5.22263332956636    1.37191589264402    8.96866742651053
N         0.14308117198213   -4.40115609869659    7.57301130725652
N        -0.47897244810168   -4.46801897408228    6.38849849277546
H        -0.46597140174396   -3.62085064677120    5.78196837099219
N         2.23606238040100   -2.50090253859575    9.47162729402980
N         1.92664757922243   -2.58402913531967   10.77361046120626
H         0.95033969845267   -2.70236496830730   11.02330276906424
O         1.49283805246951   -1.81238749967735    6.59423784216945
O        -0.07750117630119   -2.17886518335913    5.06970686424618
O        -0.08001334821933   -0.79294574490773    2.88789273884471
H        -0.36632925075851   -1.45713131105400    3.56347426123769
O        -0.80939908418544   -1.44612772605463    8.41346972081218
O        -0.68240988882091   -2.87743970178844   10.05861518974887
O        -2.60233142634542   -3.04917327742522   11.76732441880339
H        -1.76729209052269   -3.25844253914208   11.27594964241844
C         0.61284865061223   -5.89030250435666    9.47777024285760
H         1.66257094408019   -5.60346313559882    9.50634800571471
H         0.52044482504120   -6.94757243875312    9.70885510272974
H         0.08254847303747   -5.31155469435564   10.23149606505520
C         0.03993139118287   -5.60375699006613    8.13877371619331
C        -0.66186472432782   -6.45229985602883    7.28230640750891
H        -0.90635667184864   -7.48080383175657    7.45063951667897
C        -0.97605154921737   -5.68771972034363    6.16745978936474
C        -1.71183270181792   -6.03195279261541    4.92623899640723
H        -1.66999902551022   -5.20195046632944    4.22612815849772
H        -2.75472737363411   -6.24937073477540    5.15250851804927
H        -1.27852589816465   -6.91519285010871    4.46099561401036
C         4.28095241605892   -2.24536502058632    8.11064618360812
H         4.94241497379401   -3.09957953311454    7.97401407525130
H         4.89076291777727   -1.34388499743699    8.10171373925038
H         3.56866328575993   -2.20842288920018    7.29245048524837
C         3.55621141478309   -2.35957996083067    9.39828799176724
C         4.09042393285434   -2.35445667218838   10.69404853717946
H         5.12224857694665   -2.25565206185001   10.96077279211955
C         3.01646121119305   -2.49983364754564   11.55095631470966
C         2.94454652746245   -2.56179821140237   13.03114687170739
H         2.38766916303257   -1.71038190460304   13.42039934217429
H         3.94465218061919   -2.54734202999085   13.45354279706794
H         2.43738274865510   -3.47061275036360   13.35126140198784
C         0.91309822626907   -1.54816848889157    5.50130486457116
C         1.49196485557145   -0.45016139949738    4.67553821081311
C         0.96209393035311   -0.13760342482402    3.41092069974449
C         1.54632511675169    0.89340070579178    2.66893558321538
H         1.13124207677394    1.12156786272339    1.70011767189533
C         2.62018859955015    1.60024008426972    3.16264687925559
H         3.06408892669388    2.39493102263320    2.58360740744088
C         3.12859194500207    1.28659697583998    4.41744440166954
C         2.57334252681196    0.27518381153723    5.17004996137774
H         2.95621748934716    0.03082314921708    6.14804200620740
C        -1.29417533084548   -1.95432553508655    9.45017029208122
C        -2.59004331049733   -1.45856112913436    9.96770350646092
C        -3.17827936217430   -2.03531081602821   11.10671490916013
C        -4.39974860715618   -1.53482223500485   11.56330311373022
H        -4.84138148568747   -1.98435985256875   12.43831445444628
C        -5.02175700357326   -0.49373152984599   10.91026824217449
H        -5.96442704090238   -0.11113857109843   11.26877056583348
C        -4.43189978567395    0.06637009342740    9.78181108914795
C        -3.22731009475773   -0.40843090333075    9.30923055519112
H        -2.75646790479503    0.01359770759104    8.43540360112056

