61
CSD_code = RIHNEE | q = 0 | S = 0 | Stoichiometry = C30H26ClN2PPd | MND = 4
Pd       15.68296389802492   10.20737440445274    9.04312312069489
Cl       17.18582567803071   10.94028925729035   10.65633519338988
P        14.81744595881233    8.86299995366625   10.59038787338919
N        16.38464447276883   11.45775617077514    7.61025402449554
N        17.12961113067059   13.11699224813057    5.52967226150923
C        15.38810813154156    8.90937064824029   12.31577408984646
C        16.61692016624605    8.31928713335072   12.60171237226006
H        17.17070533572421    7.83657243007242   11.80613716084507
C        17.12890850384270    8.37321809439328   13.88265350824090
H        18.08514483349761    7.92105815754333   14.10029950781272
C        16.42128251315542    9.01952674438315   14.88500431737670
H        16.82492427810094    9.06695561542650   15.88570979420654
C        15.20478480116575    9.61567128889700   14.60137140840867
H        14.65864795939365   10.12839525696392   15.37993550698753
C        14.68688727464721    9.56753076961985   13.31847317912739
H        13.74293870230121   10.04587503876426   13.09535696080971
C        14.97801958862179    7.08848021972773   10.21882445594831
C        15.58958800036672    6.74907154249689    9.01512876289615
H        15.93618188808500    7.55025331520211    8.35757679625639
C        15.75892019825912    5.42019075323496    8.67199897562230
H        16.23148075049200    5.15840605943677    7.73691028028887
C        15.32518845101213    4.42497353398017    9.53359104407297
H        15.45184718524857    3.38640315160768    9.26580161568332
C        14.74716419093451    4.75869807536326   10.74833723493825
H        14.43206234945990    3.98018968359472   11.42773377544649
C        14.58104214617922    6.08668401058205   11.09867086904758
H        14.16488136962723    6.34760170816882   12.06212744365068
C        13.04674302005255    9.27591094338859   10.74492045961379
C        12.73788892820703   10.59933617668113   10.43141568625711
H        13.54634023036172   11.27206452016063   10.11805008214316
C        11.43346018243049   11.04813812622827   10.50973103492018
H        11.19655692756088   12.07360809274473   10.26845909603054
C        10.42678241699930   10.17411092572816   10.89137187488892
H         9.40510066501027   10.51932382052346   10.94633128708796
C        10.72808843602603    8.85711734716794   11.19547886169957
H         9.94076013857408    8.17634180507286   11.48529987714725
C        12.03549321663761    8.40493137085179   11.12721705541550
H        12.26119663336075    7.37321382351094   11.35281329986076
C        17.41091153567166   12.29188401537272    7.73582696183875
H        17.93416367370333   12.29286862856522    8.68672985607312
C        17.77957812902589   13.12155245148747    6.68609825377251
H        18.61117356573833   13.80509163392201    6.77095535181849
C        16.11339657520787   12.28830823889833    5.41009679569601
H        15.60118101045649   12.30411034938512    4.45897217713130
C        15.70607162637024   11.43123066954939    6.44161128624688
C        14.60878004372828   10.48250229738579    6.39261417094173
C        13.79010447926800   10.29961021859805    5.27489295480318
H        13.94501424796737   10.88858945143379    4.38264328508987
C        12.77949593997373    9.36624474606279    5.30544254104331
H        12.14805025961959    9.22908872712223    4.43864708564643
C        12.56056057457896    8.58841723543738    6.44310027653591
C        13.37807346738729    8.78030025047909    7.54802353861924
H        13.21128275604862    8.17270102844707    8.42761292942408
C        14.40642830912854    9.71719014476679    7.56185490658586
C        11.44733571986601    7.57452745422306    6.41602256844487
H        10.51648154942349    8.09985936672885    6.18028018195982
H        11.63783610929517    6.88297960965601    5.58907249849647
C        11.25407735727649    6.77490985433770    7.69835404131384
H        10.42610898862949    6.07996351842208    7.57424186176469
H        11.02494625954765    7.43300272612238    8.53406220776043
H        12.14661727065272    6.20024516617272    7.93815412067291

