25
CSD_code = RIHNAX | q = 0 | S = 0 | Stoichiometry = C6H12Cl3S3V | MND = 6
V         4.76445082044284    0.30978789597472    1.70592260189092
S         4.52877920111272   -0.01750944448105    4.25614756092761
C         4.15973580546483   -1.81096118557632    4.42914061867561
C         4.72943127305303   -2.63770612502998    3.29086796152345
S         4.31729342835802   -2.07346338937768    1.60727008444964
C         2.50584208065879   -2.37584042472383    1.54243543119062
C         1.82567387278757   -1.16147741496921    0.94163290077488
S         2.38067646635626    0.41507171294893    1.66484116941309
C         1.81791697276900    0.24657332076536    3.41030750667802
C         2.86433019049757    0.72752907689202    4.39765407704425
Cl        4.78853846785576    0.41842385653239   -0.53971470775964
Cl        6.72515845959693   -0.49600926933854    1.83497802022139
Cl        4.63252436826452    2.34564872144606    2.03709153692987
H         3.08065779650910   -1.92075528726679    4.51975167499471
H         4.62078370353438   -2.13308267976839    5.36455208402936
H         5.81927324077910   -2.57981763657297    3.29687281837501
H         4.41750361772816   -3.68038006401881    3.37633378779212
H         2.15089147601343   -2.60001154493041    2.54712534478720
H         2.34100987563141   -3.24767184636567    0.90751917230975
H         2.11835375913300   -1.04797324254912   -0.10455131154371
H         0.73865542983495   -1.22266213922278    1.01777796501424
H         1.53734401487430   -0.79145284300402    3.57911416446742
H         0.92686557985000    0.86910707897145    3.50932810010732
H         3.06685892030256    1.78855481318480    4.23956485306115
H         2.51925117859170    0.57067806047960    5.42193658464557

