57
CSD_code = RIHQII | q = 0 | S = 0 | Stoichiometry = C30H22N4Ni | MND = 4
Ni        2.14390650703472    4.40212951031742    4.92873921817814
N         1.67839888722935    5.72957678655232    3.65188608974820
C         1.63827154628093    7.10154645683891    3.81391976316501
C         0.93187879245612    7.67073722950609    2.72225250275631
C         0.53600388028541    6.62782311066560    1.92137696495785
C         1.01609703934384    5.45607839109562    2.52644409801537
C         2.14442146104357    7.77418867892450    4.92880623834646
C         2.14469968148288    9.24411927779444    4.92873902533600
C         2.75428029209716    9.94944922550967    3.89399135471080
C         2.75904750681887   11.33195896636634    3.89934538594111
C         2.14524552911704   12.02669694818055    4.92860089605273
H         0.72592780364920    8.71509366769621    2.59151611696717
H        -0.02937859944999    6.67656979803299    1.01089972742187
H         0.88888902429919    4.45279199886178    2.15695472606845
H         3.24135981974664    9.40532065482549    3.09828509702567
H         3.24244905310600   11.86987224572439    3.09704318064980
H         2.14542750087094   13.10660305006825    4.92853339199426
C         2.65033241645680    7.10142107763781    6.04371444775363
N         2.60978445311297    5.72945771594802    6.20579428240683
N         2.60975977130138    3.07479335674358    3.65168200620386
C         2.65034386823248    1.70283610937479    3.81377774008303
C         3.35683979386669    1.13381931816840    2.72208273169402
C         3.75229211642807    2.17681707525896    1.92111404718784
C         3.27187301168573    3.34843768736384    2.52616875026746
H         3.39873201477090    4.35174036691249    2.15661022167124
H         4.31760213414166    2.12821036919770    1.01058450878071
H         3.56312274579314    0.08952369737962    2.59138472730797
C         2.14445303757729    1.03007059272243    4.92870095243158
C         1.63828227548911    1.70271531910960    6.04357185038313
N         1.67838050850034    3.07469055838899    6.20559235889312
C         1.01606982535163    3.34818796239301    7.33102585006303
C         0.53598740899980    2.17644125816673    7.93610115096557
C         0.93183615146609    1.13353130713053    7.13521150173182
H         0.72588506912178    0.08917417329598    7.26594713572427
H        -0.02936722811168    2.12769231902068    8.84659565951399
H         0.88889645496043    4.35147139509488    7.70053704045459
C         2.14471953909352   -0.43985999269459    4.92875004266068
C         1.53541021590483   -1.14552717630622    3.89407444684311
C         1.53117292208736   -2.52803853482124    3.89957089495992
C         2.14523659069780   -3.22243786094143    4.92889962441694
C         2.75903982593258   -2.52769795458260    5.95815358767230
C         2.75428754235654   -1.14518959276357    5.96350088069565
H         3.24134841734437   -0.60106224147550    6.75921886550655
H         3.24246626392182   -3.06561001312447    6.76044060825022
H         2.14546259383338   -4.30234394033916    4.92894341965337
H         1.04797599234153   -3.06621887555187    3.09732460305691
H         1.04812248944103   -0.60166782872098    3.09831150399006
C         3.27190918937964    5.45581555599834    7.33129769807852
C         3.75231224686195    6.62743922411314    7.93636256080974
C         3.35687913463543    7.67043255902213    7.13538278900343
H         3.56315574531958    8.71472981787669    7.26608264919445
H         4.31759558606205    6.67604940558694    8.84690857690308
H         3.39874109359113    4.45251546293356    7.70087458954521
C         1.53117287873437   11.33229584315840    5.95792356687990
C         1.53539525294099    9.94978586997021    5.96341337609920
H         1.04812027809241    9.40592749526407    6.75918424962363
H         1.04794464687158   11.87047512112894    6.76015072530518

