85
CSD_code = RIHVOT | q = 0 | S = 0 | Stoichiometry = C36H44N4Ni | MND = 4
Ni        8.67925695642746   10.09872295110067    9.89205458173215
N         9.91465109024028   11.35613597854361    9.15387793639951
N         9.52817856002066   10.36171043506344   11.58622448651249
N         7.45909655317886    8.82336757314269   10.62444038865540
N         7.88581575060179    9.77024280317451    8.18423738580355
C        10.26795961896876   11.42956718936564    7.83881338414357
C        11.26674875317322   12.44440005765772    7.65247853873405
C        11.95083604935257   12.74054823148422    6.35858511575686
C        13.06006903406283   11.72388637438064    6.07860837092561
C        11.45508913713570   13.03903466126837    8.86701236093086
C        12.48129668570158   14.08399479162807    9.15972325284755
C        10.59961984088297   12.34364482208659    9.80353025540836
C        10.59021239884481   12.52165230961914   11.19250401237466
C        10.83741025676389   13.87806301760362   11.79027853738032
C         9.60579911770810   14.30785530236568   12.59533316186897
C        10.26864946799138   11.42815884912740   12.00910693692348
C        10.77217493383576   11.17363003159219   13.34121132947122
C        11.71215811325578   12.01066009613779   14.14200366580788
C        10.33788712571696    9.92613404179889   13.68892440535810
C        10.58495813223765    9.17372083699254   14.95481051817766
C         9.54411319291887    9.52839862900352   16.01962016465319
C         9.50525848380864    9.46488562619969   12.61356544488026
C         8.66518811059441    8.36874800411398   12.69250924111687
C         7.65388157971772    8.12692065053468   11.77972048401457
C         6.56728880416063    7.21302474693057   11.99402393771113
C         6.46152450103803    6.27037991340620   13.14630616569404
C         5.76115307615258    6.93380664260981   14.33464571125200
C         5.65930503026011    7.44173204829879   10.99948361170440
C         6.24127900928518    8.44462354441527   10.13391160048054
C         5.74085830358385    8.84614005199492    8.88960644468018
C         4.26044078320875    8.90333379287450    8.63781549024442
C         3.86210928864396   10.33790795536232    8.27313781044410
C         6.64776018908522    9.26711514894472    7.90575596700744
C         6.49503010301485    9.11318116078162    6.47585439230634
C         5.35792917526546    8.49059667980762    5.73770530394781
C         7.67299691329191    9.51588456892235    5.91354532126940
C         8.05086470743095    9.54687742773378    4.46936876810119
C         7.59321404156556   10.84894350990945    3.80740838890379
C         8.50046274174707    9.99137257176939    6.98662818304414
C         9.65584377662457   10.73168230372302    6.81272109024376
C         4.39925250673484    6.66859110918168   10.79547587683061
H        12.37540485301530   13.74565950016770    6.38603886668591
H        11.22366278333829   12.71610981148602    5.54370140166584
H        13.54536179023574   11.93947733630977    5.12893731093089
H        13.80931312343440   11.75605157210357    6.86658147618136
H        12.65110971169401   10.71692017763681    6.04204787720824
H        13.24995637658633   14.06532445703103    8.39015598101027
H        12.04629562161717   15.08464423100490    9.16891676969504
H        12.96033078093389   13.90344358450413   10.11889775498275
H        10.97279220626301   14.60527958561120   10.99502718460228
H        11.72177578243184   13.90031946628159   12.42628617725779
H         9.76760172475627   15.29184744174335   13.03123983888530
H         8.73820651019495   14.35797985496613   11.94102051995447
H         9.38213682333206   13.60302537399198   13.39092189743035
H        12.04488350982231   11.45372867914486   15.01473917165695
H        12.59204449408925   12.27077469249165   13.55426828434751
H        11.24447917584865   12.92878609023490   14.49262917737857
H        11.58201961229854    9.40529165280725   15.33623289991277
H        10.55371098573309    8.10069782224369   14.75613262001482
H         9.72293460807516    8.96357241339691   16.93217665961884
H         9.58933470538943   10.58970458206210   16.25299353589111
H         8.54253869510798    9.30263509739506   15.66057178750545
H         8.72007076772761    7.74585849074171   13.57026830733000
H         7.45784869771341    5.94016186136395   13.44663292399913
H         5.89754322400782    5.38308690868153   12.84957003520796
H         5.70124280750818    6.24661195071510   15.17597245157254
H         6.30568638798436    7.82193185251576   14.64742470766910
H         4.75312886473267    7.23374629768378   14.05804647446201
H         3.72800523767370    8.64245120712513    9.54768543604100
H         3.94392052660825    8.21965421024321    7.85056419645777
H         2.79086789138993   10.39407887610041    8.08936986699675
H         4.10747417560819   11.00761922546365    9.09451072079794
H         4.38926948442662   10.68754769596599    7.39025216475566
H         5.63585412122070    8.34077699304270    4.69708431812351
H         5.10999946599585    7.51837869511241    6.16259100041235
H         4.46697755053340    9.11556472938221    5.75665692306495
H         7.59702653375647    8.70046503020267    3.94873609413610
H         9.13346752877058    9.44709623100011    4.37057401374959
H         7.88792827264899   10.86937347477279    2.76023747897165
H         6.51117548065200   10.94180003343838    3.86573626718388
H         8.03474254509072   11.70577719127098    4.31145289618645
H        10.02796270331755   10.86883336551001    5.81050197115225
H         4.45345447214733    5.73209924270881   11.34738669377059
H         3.52944195300911    7.21416838718009   11.16413513940797
H         4.24529553904849    6.43546818651015    9.74452470198738

