63
CSD_code = RIHVUB | q = 0 | S = 0 | Stoichiometry = C28H30P2PtS2 | MND = 4
Pt        3.42544244755289    1.58711666737640    5.57566510790072
S         1.15558700142497    1.02228563034150    5.37489067046625
S         2.95797716195587    2.95378542156799    3.72249669777518
P         3.63606050925936    0.16842414363448    7.40267394735133
P         5.63516129135995    2.25766146332953    5.32879872134389
C         1.57903770625710   -0.07000391046779    4.06674752234203
C         1.00763678785913   -1.33047013315210    4.10751477912181
C         1.19595307981267   -2.29386516301501    3.10967993875733
C         1.97813838139999   -1.97201221232774    2.03577384157735
C         2.54767403414688   -0.68874274512932    1.96661975694643
C         3.26520882155960   -0.51054700119031    0.77099478966134
C         3.83537754047393    0.70494060046072    0.51458999807308
C         3.70364116218044    1.71582496186356    1.47416336419320
C         3.02547723096432    1.54847565333390    2.67039106253162
C         2.39404274535585    0.30131441757638    2.95546027741336
C         2.35855650543794   -2.75298086807497    0.80889522373404
C         3.21734046320725   -1.77949051896317   -0.03317543067533
C         2.17041734783249   -0.76614240833770    7.97529302302435
C         4.94322869173594   -1.11126955970789    7.55495973824330
C         3.91153301809405    1.30551794778514    8.79222843767342
C         4.60844369188085    0.99587649622181    9.95179094088768
C         4.74856063300804    1.94816031709982   10.94631762022405
C         4.19264020904911    3.20718649389685   10.79214563007791
C         3.49647865716356    3.52244440801722    9.63549909682296
C         3.36097919262249    2.57607776505174    8.63803797943604
C         5.94249762635336    4.01491739494636    4.91963904212813
C         6.41764065088503    1.42221629140146    3.90326787313805
C         6.80180431427904    2.00566133477933    6.70458202052959
C         6.67034858420474    2.82485849408727    7.82330567471218
C         7.47936653254971    2.64330919925144    8.92770641750113
C         8.42518035312064    1.63053140180859    8.93477524235968
C         8.55632227486482    0.80428049006448    7.83159001275778
C         7.74733803445551    0.98611971792165    6.72294210129715
H         0.37143760341044   -1.56445093305920    4.94970727566337
H         0.72170924054483   -3.26066411012267    3.20213485734557
H         4.37890396546069    0.90120008427396   -0.39865409061713
H         4.13714909643993    2.68667714430636    1.27522971614181
H         1.46808462164700   -3.07379301144691    0.26425758666542
H         2.91821858687712   -3.65224964143070    1.07708313774485
H         2.77195523624103   -1.59889206409713   -1.01367499843894
H         4.22293073244214   -2.17327757311639   -0.19946466104464
H         2.35703839773641   -1.19170202061555    8.96127804933231
H         1.95665800230350   -1.55756951510704    7.25754683998851
H         1.31711767218920   -0.09070546491092    8.01121982192808
H         4.85116784463868   -1.79106353551341    6.70799692236295
H         4.82451074323542   -1.67772019403728    8.47728699014472
H         5.92477825963940   -0.64176700004163    7.52840490840093
H         5.04993232897164    0.01874965066959   10.08060860552888
H         5.29469439721698    1.70605925866743   11.84666745653699
H         4.30474850248433    3.94498647603172   11.57315649580759
H         3.06601865067735    4.50534968905076    9.51289893867391
H         2.82668874216775    2.80855584923006    7.71358257120317
H         7.01105431639394    4.18717678410963    4.79229567229175
H         5.55611153943695    4.65448410248054    5.71021445097351
H         5.40610095409151    4.24505230781079    4.00027376259247
H         6.35270649187194    0.34115598386635    4.01873020891727
H         7.45699616120547    1.73124208915226    3.79524823297493
H         5.85488485716300    1.70012906199259    3.01149438456819
H         5.92162353594539    3.60393472057557    7.82482439029324
H         7.36927241513977    3.28857000532097    9.78648843964676
H         9.05742402596720    1.48451806021455    9.79782238144464
H         9.29185528949244    0.01252834058879    7.83364422363339
H         7.85823510661865    0.33292326813297    5.86983630915399

