72
CSD_code = RIHXAK | q = 0 | S = 0 | Stoichiometry = C22H35B10ClIrN3 | MND = 8
Ir        7.72329186450109    9.33103833585089   12.69870375533421
Cl        5.72851791594065   10.59256424552639   12.73386633706896
N         7.75373247690558    7.96508639368470   15.40311125765673
N         7.13990944937323    7.15130134743396   16.22837680987456
N         6.07414024816697    6.75389058727431   15.58924853402117
C         5.99089285726779    7.31013107321543   14.35693626812484
C         7.11110985463441    8.15220530046781   14.21897031142398
C         5.14073835297198    5.88019050183506   16.23988191267322
H         5.43005781650395    4.83681832414216   16.10440610655742
H         4.14710172805536    6.03526080435514   15.82375710058322
H         5.14448346844788    6.10778193879500   17.30455751257383
C         9.02435614067285    8.51902009436327   15.79014837038039
H         9.80204613059477    7.99729672708077   15.21859129682499
H         9.15464635383463    8.27909026785109   16.84888268211730
C         9.12112647145669   10.01457850245395   15.56649428894320
C         8.55197707062795   10.60845177323174   14.18354948606672
B         7.71643215670504   10.97770423311822   15.66705390571465
H         6.69299252285340   10.43378630770324   15.85830792443264
B         8.97632572347346   11.08162538176742   16.90039874147839
H         8.76838695019300   10.59029866348299   17.95038594370136
B        10.53912949445457   10.79788367342324   16.12662005660179
H        11.33603157189700   10.12093693785603   16.66914663849851
B        10.26425249880976   10.52958262036191   14.40311910404230
H        10.84018452203571    9.67181674013185   13.84518348115919
B         9.53806923355610   11.95179574002864   13.71345076565884
H         9.65678033270392   12.19252286255914   12.57199689032699
B         7.99864155369854   12.23661340907567   14.49274273701578
H         7.10978145879532   12.67330447787280   13.87163222654943
B         8.27307897863616   12.55431763608220   16.22543044996936
H         7.56682664713158   13.25800088463006   16.84853436677795
B        10.03530759885876   12.44584665997132   16.50904599017338
H        10.57031717093855   13.07528804739724   17.34693273512660
B        10.83266599035933   12.09170095945022   14.94538544811968
H        11.91592715572322   12.46531636262135   14.67647653720751
B         9.41933376127431   13.17087859930808   15.00613301378634
H         9.50743300528067   14.31886762080141   14.76412249907659
C         4.91944706907166    6.91337905530064   13.44155068518628
C         4.04286999981231    7.84143463352416   12.89165606619655
H         4.16816779867426    8.88857643290523   13.11564768397186
C         3.03908619804437    7.41839484343878   12.03761541014922
H         2.36744803828374    8.14672685960101   11.60978446045517
C         2.89537403447395    6.07648709356530   11.72903222233346
H         2.11298602954085    5.75204150284057   11.05914108953229
C         3.76352268380830    5.14717517429138   12.27927225712983
H         3.66232334947843    4.09891978917674   12.03857175796926
C         4.76698183053732    5.56034765340658   13.13505127201556
H         5.45373351985360    4.83171773861456   13.54341180275432
C         9.34962689487107    9.46237600229242   10.97459978170149
C         8.07929968940368    9.78799983408025   10.46686027892453
C         7.23523505912955    8.61698809823416   10.56339553501674
C         7.96919881569905    7.60317027475606   11.19079921585484
C         9.26016262282886    8.14892524864204   11.54857713982745
C        10.62161615092931   10.22008936146586   10.77279423875492
H        11.21977449312568    9.70873315206873   10.01495320751627
H        11.21374458536896   10.28330103907041   11.68257057082806
H        10.42579568591968   11.22997623248471   10.42336091436917
C         7.69186658361692   11.02277652384215    9.72001240092688
H         8.35499338834217   11.85179981116515    9.95692001359890
H         6.67529138584898   11.31643929375597    9.97646744089085
H         7.73165038274025   10.84230728351767    8.64331196399794
C         5.88205833236527    8.52180743914812    9.94036186830850
H         5.95951573700442    8.64563978940880    8.85875123860941
H         5.23146306135383    9.30665365959963   10.32538092488681
H         5.41571031179273    7.56140817719424   10.14864985389436
C         7.60823863816480    6.15664277800340   11.31683589392567
H         6.53873614538090    6.00454295529565   11.19673264364004
H         7.90650003909486    5.75159636560755   12.28347524303700
H         8.12507351018425    5.58377272121845   10.54355339211504
C        10.43450914443592    7.31574111732813   11.96281089110953
H        10.14046349118124    6.53432041420918   12.66255505025278
H        11.20828015177873    7.92501538929385   12.42474756439758
H        10.87222862052641    6.83078222645989   11.08700654027826

