67
CSD_code = RIHXOX | q = 0 | S = 0 | Stoichiometry = C24H22N8O12Zn | MND = 4
Zn        5.03359536443772    3.52977818274170   10.09205447044966
N         4.27298523250668    3.14317183433388   11.86662429386251
N         3.14401131733487    3.76575675855942   12.22955209197912
H         2.69835892670817    4.42622271792945   11.56075942968262
N         6.75237487619381    4.49095756917782   10.51612664973146
N         7.82571776095139    4.28819543095988    9.74368245308842
H         7.77973235577534    3.58087863098085    9.02338278721190
N         6.65750518118753    0.02967870731063    4.10076227619078
N         2.01796521015954    1.58031407404207    4.25229877234512
N        -0.97003372244426    6.83260498404965    6.57488275283217
N         2.82131379831687    4.77675235290206    4.27231271543602
O         3.86581097231623    2.21174914905815    8.97895750786397
O         6.00174948792826    2.46177849303640    8.60336288067223
O         7.72229781899560   -0.03064121677868    4.67176745425811
O         6.44473897238356   -0.35667316643109    2.97670421208519
O         1.74946228094797    0.91824416188473    3.28220615645888
O         1.32186492932229    2.45473372420195    4.72547808271511
O         4.15614139130847    4.92341715547779    9.14637210898286
O         2.25556787897356    5.31829067531410   10.23340670009377
O        -1.47415926749262    7.13082292970522    7.63261820587283
O        -1.46944827027338    7.00838744500972    5.48874287995751
O         2.36410614421821    5.15331868930495    3.22237301332751
O         3.77621616158233    4.03175530221295    4.38700371650920
C         5.83157529472811    1.48420060336115   12.79308516571757
H         6.22625265353729    1.49856294484360   11.77853340515241
H         5.60030865957020    0.45881197477458   13.07433500284675
H         6.59469691990798    1.85894189834415   13.47506752932654
C         4.61205764643113    2.32709830254485   12.86284478789078
C         3.66893615915366    2.43980341101233   13.88594786101442
H         3.66173707853323    1.91359929214931   14.81796326310097
C         2.73924698261003    3.36816989964977   13.43936848734245
C         1.50975903301392    3.89920369588396   14.07583205657532
H         1.03912330973671    4.62817604674705   13.42192602685403
H         1.74668251967638    4.37244028678115   15.02712448547119
H         0.80607043490950    3.09179496413054   14.27022202269258
C         6.08012869763566    6.00446678632253   12.33545903766383
H         5.11128690191601    6.15790614912491   11.86483771486153
H         6.43027705951646    6.94385620453821   12.75353372092153
H         5.95488853666598    5.28474660926623   13.14335519054147
C         7.04933965748183    5.49519504493477   11.33390293699483
C         8.35249323543331    5.93291108843069   11.07203907076391
H         8.87693876738793    6.72466005024866   11.56557619403620
C         8.81966991267245    5.13924082188797   10.03996275641499
C        10.11742472451155    5.13252329020430    9.32254086950731
H        10.55638170015241    4.13635999600706    9.33391776585176
H        10.80670873479698    5.82802910121609    9.79152162998686
H         9.97758709613214    5.42712515261372    8.28317159551346
C         4.85642026917714    2.10397552040072    8.23875027636603
C         4.67788329165813    1.57809165748554    6.84555022133606
C         5.74100322964793    1.03361178003607    6.13907466580443
H         6.71352468452596    0.93966689025053    6.59908179443860
C         5.54507905075873    0.61197642348290    4.83069061260891
C         4.31996466586320    0.75674508273103    4.19636592306383
H         4.18631072965292    0.45077857926859    3.16844790094247
C         3.28275528059702    1.33443863307538    4.91106190333666
C         3.44142508945226    1.72681811294418    6.23229587278498
H         2.61715368137724    2.15763227261188    6.78163736186906
C         2.93035832117187    5.22357767392764    9.20749570752375
C         2.24914342846672    5.48260066303899    7.87713623914679
C         0.98107968051481    6.04737334922137    7.83691613801074
H         0.49368061301750    6.34431736946059    8.75440606793014
C         0.34743857654258    6.22190742867275    6.61352553215422
C         0.93931628572219    5.81846549383798    5.42590715298874
H         0.42965824661160    5.93717775798437    4.48061108608907
C         2.19736107634234    5.23860086095271    5.48960124370272
C         2.86136670836844    5.07908413410602    6.69843882080124
H         3.84793057309022    4.64064211647719    6.72770529045539

