76
CSD_code = RIHYOW | q = 0 | S = 0 | Stoichiometry = C36H33ClO2P3Re | MND = 6
Re        3.42043522589546    4.52043190871300   -1.77167048869453
Cl        5.37910775269998    4.04660099152496   -3.04307818514997
P         4.51475669156500    6.57397896908947   -1.11827741344206
P         4.51586363570041    3.83548327871676    0.21691536031380
P         2.63498166858928    2.23253482120378   -1.68119968921726
C         1.84227621118275    4.97572215873468   -0.76045676025632
O         0.89492727892834    5.23951720003810   -0.14632403341325
C         2.64555385662727    5.04605003879549   -3.47184160815739
O         2.23892443359793    5.34215253344700   -4.50518281068423
C         4.99582593587072    6.47886801068876    0.69473101469118
C         4.38459737609962    5.25464157946075    1.38033370201438
C         3.51130538238962    2.48218465067863    0.97647581522276
C         3.25611077772768    1.44147079631946   -0.11271963523818
C         6.08781120025916    6.96505059990401   -1.92919680142451
C         6.11654481369275    7.89177389280506   -2.96720367748989
C         7.28530389965939    8.09726046278238   -3.67633061265912
C         8.42108196721596    7.36379417212606   -3.37457483849411
C         8.38522974847189    6.41335935409525   -2.36749395214791
C         7.22213311395229    6.20712723359095   -1.65113592755684
C         3.62568893435009    8.15747791267391   -1.18187646785886
C         2.34017691524770    8.20754266837313   -1.70416898411352
C         1.65821695682740    9.41147797641522   -1.74701653280520
C         2.25853189915768   10.56539260493978   -1.27238256485699
C         3.54563507911408   10.51969934944211   -0.75774292945357
C         4.23023176956895    9.32066589064910   -0.71135667551888
C         6.20657466863634    3.19405965425243    0.35752145269909
C         7.10066551706658    3.56082322045313    1.35905027422827
C         8.37827439606714    3.03106513424134    1.36885454018501
C         8.77414844186739    2.14001748501374    0.38424407611809
C         7.89022486043438    1.77805428468475   -0.61852811130432
C         6.61223602357785    2.30432463244517   -0.63606658433245
C         2.96376295224413    0.89975098256258   -2.87159676500918
C         3.90683950376929    1.08044592941067   -3.87510734113952
C         4.16151234844444    0.05504694424727   -4.77021613576141
C         3.47703195660163   -1.14347391739701   -4.66659925982691
C         2.53005221879794   -1.32136310473341   -3.66844724089319
C         2.26912627574255   -0.30386656032394   -2.77178435141111
C         0.82195867251584    2.16158429643313   -1.57216185852888
C         0.15487115260201    2.46806731424937   -2.75694256626145
C        -1.22401760379506    2.50209117722813   -2.79221070388087
C        -1.94976148193069    2.24460271940785   -1.63871034986853
C        -1.29134344212153    1.95940781949863   -0.45581215345746
C         0.09246492469726    1.91972627472603   -0.41683708536368
H         6.08804385349931    6.43656585740615    0.74723216183024
H         4.66168103097019    7.39940237574997    1.18193143317852
H         3.30892494839820    5.40974569068964    1.52553281669445
H         4.83833355054031    5.05941185606958    2.35606017190589
H         4.01973363088290    2.04401755986214    1.84170365477081
H         2.57006650859146    2.93950662873988    1.30132994829769
H         2.54856134409181    0.67089463071231    0.20897493153961
H         4.19641545904782    0.94310777721743   -0.37507647936618
H         5.21991565833738    8.44265353206716   -3.21807838884330
H         7.30536305116426    8.82159054292205   -4.47767828600422
H         9.32964407987247    7.51886670776123   -3.93792624684185
H         9.25975806677707    5.81689133317213   -2.15091193981196
H         7.19103838813575    5.43337523128468   -0.89444030816112
H         1.88875533766778    7.29509640282841   -2.07459745748675
H         0.65815638274154    9.44799739477030   -2.15239383587032
H         1.72696963645696   11.50501507535648   -1.30596272332576
H         4.01551694466403   11.42243474913014   -0.39481164021545
H         5.24050382687265    9.28316817805074   -0.32415254125905
H         6.81121164003652    4.25873227856211    2.13219276797456
H         9.07026690532158    3.32010095434981    2.14715007157578
H         9.77618851363892    1.73670705596052    0.39553029833631
H         8.19949100312601    1.09582039901300   -1.39638431510917
H         5.93987426877503    2.06730856228596   -1.44970353538741
H         4.43594830985592    2.02173822660341   -3.94641718516470
H         4.89423616804194    0.19582137955529   -5.55103540037516
H         3.67498393242108   -1.94244866385646   -5.36643519311744
H         1.99213029463312   -2.25561449677189   -3.59377704205833
H         1.52091318938770   -0.43164238353951   -2.00058220302131
H         0.74145937391668    2.68555341268066   -3.64135889603701
H        -1.73616835537249    2.73664322298829   -3.71353742371899
H        -3.02907751656364    2.27597437708356   -1.66076892906243
H        -1.85681804599625    1.77186768857037    0.44566962867736
H         0.58980471042580    1.70557312109004    0.51834694564808

