117
CSD_code = RIJCAR | q = 1 | S = 0 | Stoichiometry = C48H54AgO12P2(1+) | MND = 2
Ag        6.92459863570013   10.77979572998918   -0.00018522555506
P         8.68910071538890   11.83701267039563    1.29398780223798
C         8.05181635285621   13.34844823367458    2.06351515671526
C         6.67503898135261   13.48567287859659    2.26123054529790
O         5.90960400820472   12.41718562090128    1.89188670128127
C         4.51968517150005   12.45629032647475    2.13749831984524
H         4.31008073517080   12.57135884995928    3.20503296313049
H         4.12974779474337   11.49764214637276    1.79506003121267
H         4.03608605235733   13.26310372889640    1.57832754434759
C         6.15233585011299   14.64964741441924    2.81077567251732
H         5.09266103460228   14.75085458522312    2.96653372994038
C         7.00942349348942   15.68921831217422    3.16007823564312
O         6.61033262778689   16.86289363190779    3.69763041855385
C         5.23922869388462   17.08206462040892    3.94149874272667
H         4.65691495935122   17.05145904358109    3.01558581860832
H         5.17536693381080   18.07942294859793    4.37235092803420
H         4.83739499888370   16.35531489382517    4.65400607033128
C         8.38589971051699   15.56261423984302    2.97082326755892
H         9.00694006941805   16.39102789887784    3.26562722117272
C         8.90613920885736   14.40041954498349    2.43060453638173
O        10.22064198960154   14.16224361653313    2.23526276220135
C        11.15360363857486   15.16157285327118    2.57008838246172
H        10.99059671040236   16.07343113363424    1.98795659921982
H        12.12943832417010   14.74671371088372    2.32421894454113
H        11.12166803241499   15.39877785849476    3.63762945418410
C         9.95435713406864   12.43107256046211    0.13519603641655
C         9.41987537411192   13.00961053547174   -1.02517848944446
O         8.05671163871623   13.06692559687609   -1.04956892957967
C         7.43157777637227   13.69584765293625   -2.15016387126750
H         7.74986232327909   14.73834824024740   -2.23664222962854
H         6.36206641977816   13.65458567987604   -1.95118400890600
H         7.64195935779750   13.16633508796149   -3.08341948652574
C        10.24350431085042   13.46642027132101   -2.03495622821154
H         9.86794368769465   13.92447103001526   -2.93338316142455
C        11.62789023143669   13.34260230434635   -1.90021330220573
O        12.35076021296256   13.82253560483549   -2.93874382920152
C        13.75815593010377   13.76254596825607   -2.88506964715986
H        14.15212139212555   14.33161777250915   -2.03779891798382
H        14.10533337601542   14.21397815429959   -3.81251178297942
H        14.11453373328394   12.72934079230160   -2.83165853747902
C        12.17274801913863   12.75682031627339   -0.76363957734550
H        13.24029719160550   12.66277035268125   -0.66492190810706
C        11.34141698480842   12.29973413456909    0.25496824409381
O        11.79244777985061   11.72237164651236    1.39035980464640
C        13.17627087465919   11.58310079183709    1.60278835608782
H        13.63803607866443   10.93594058963987    0.85015083445321
H        13.27177709633028   11.11756289611610    2.58245474665487
H        13.68621217575977   12.55144046317667    1.61284472990146
C         9.54721456439483   10.95231521060344    2.62883478750215
C         9.95654116223375    9.65428497206201    2.32960239903037
H         9.78625036269988    9.27074234558250    1.32872242000132
C        10.58208334575132    8.87959048872356    3.28548725721961
H        10.91087983548995    7.87838774298685    3.04645173992275
C        10.78204728402223    9.38776531528128    4.56051337698652
H        11.26939257549968    8.78420035829541    5.31156795935723
C        10.34771772550565   10.66484188145136    4.87164314426097
H        10.49392355788037   11.05427508649611    5.86857701300839
C         9.72647810490273   11.44712470628528    3.91254826806161
H         9.38391252859774   12.43987421479024    4.16256952330464
P         5.15978348108441    9.72034316944669   -1.29408547263765
C         5.79712625028923    8.20886828044740   -2.06349289318084
C         7.17391534851386    8.07164809219480   -2.26124446185428
O         7.93936461596497    9.14021897329922   -1.89216742665431
C         9.32925130909297    9.10115862062818   -2.13790428103936
H         9.53874859673336    8.98599385265470   -3.20544687137624
H         9.71917183948497   10.05985955872212   -1.79558035968558
H         9.81291513793301    8.29441621250518   -1.57869418797714
C         7.69660997691966    6.90764851709429   -2.81072120615605
H         8.75626965700412    6.80647930788991   -2.96656749929098
C         6.83953071225836    5.86801744642241   -3.15987281121544
O         7.23863821170431    4.69429320758250   -3.69729994893120
C         8.60973603974284    4.47514695369027   -3.94124996329702
H         9.19214074162888    4.50592247365062   -3.01539740845049
H         8.67361108120142    3.47773096566186   -4.37196315782862
H         9.01146840983790    5.20181012298075   -4.65390377317711
C         5.46306775785557    5.99458580861072   -2.97053881518846
H         4.84204895929657    5.16610537577533   -3.26518453398114
C         4.94281479544186    7.15683261965170   -2.43044929022761
O         3.62831697184562    7.39496711452965   -2.23503691070921
C         2.69540079294597    6.39551968067809   -2.56963498531758
H         2.85852773412628    5.48375119139272   -1.98739669844950
H         1.71955912609157    6.81033931268625   -2.32373447114465
H         2.72725448706214    6.15817678168861   -3.63714507697416
C         3.89466230755679    9.12621213165276   -0.13519593461233
C         4.42920626395698    8.54754447993586    1.02509276013465
O         5.79236554943536    8.49014853377996    1.04943096334887
C         6.41758139149630    7.86113606755617    2.14990399511738
H         6.09930383630996    6.81862704418043    2.23626057942301
H         7.48708945390311    7.90245956432729    1.95087764842841
H         6.20723607065518    8.39055042020869    3.08322051608099
C         3.60562906568987    8.09061847286923    2.03484839797621
H         3.98124034429826    7.63245014991343    2.93319352324108
C         2.22123628780949    8.21435996423912    1.90014099494839
O         1.49842908708687    7.73417359134018    2.93858421502258
C         0.09103293760049    7.79411169892286    2.88498275490174
H        -0.30294199825577    7.22523568751303    2.03758775208698
H        -0.25606088507952    7.34240431075993    3.81232142336176
H        -0.26540835756014    8.82730943007702    2.83185889888155
C         1.67631891683054    8.80034375105598    0.76370156002379
H         0.60876753254370    8.89441565851371    0.66505804479913
C         2.50759666918747    9.25760689050725   -0.25486289819080
O         2.05651326364816    9.83520330566737   -1.39011311720840
C         0.67267981757448    9.97447082257501   -1.60247485050134
H         0.21091103492557   10.62145297517672   -0.84968593167872
H         0.57712460754545   10.44021132281329   -2.58203970357266
H         0.16279219526866    9.00610548852316   -1.61272824136536
C         4.30174305813379   10.60499661124466   -2.62899392943138
C         3.89238963811779   11.90298768093413   -2.32983263556014
H         4.06291701037498   12.28669490945478   -1.32901897003167
C         3.26671596726469   12.67756559815765   -3.28572218319857
H         2.93828168316098   13.67898944905821   -3.04684337391497
C         3.06674715634165   12.16931625742944   -4.56070691073217
H         2.57950388466911   12.77289201097775   -5.31182656353151
C         3.50114221615445   10.89228126377016   -4.87177278216964
H         3.35465534417837   10.50266656126157   -5.86860727885076
C         4.12246340487373   10.11010636246848   -3.91265096514119
H         4.46471834070335    9.11715063624686   -4.16252660938204

