59
CSD_code = RIJCIZ | q = 0 | S = 0 | Stoichiometry = C24H27ClN2O3PtS | MND = 4
Pt       10.45926993652510    8.24494405752495   16.06687582685754
Cl        8.68644467639733    9.65175200325031   16.04670808962949
S         9.20927175505727    7.13258040290609   14.53944644236980
N        12.08432853965983    7.04952588751451   16.10984420266472
N        12.27901010535250    6.18236480690832   15.04924020490200
H        11.41909555780315    5.87388253338708   14.59125032743548
C        13.33676836116605    3.66228728181978   10.80255749828224
C        14.40143967974974    8.75450275092988   20.08418274351922
C        14.18473050412722    7.78245867100387   19.07596617103574
O        11.31237718179869    9.42127571925459   17.43709682369865
O        14.48533435403394    6.62819781325356   14.69694704746790
C        13.57631347224857    9.90753495314929   20.12755116477823
H        13.76178363306331   10.64431021583433   20.89609546900953
C        12.56752472925689   10.08135074045333   19.24329547218978
H        11.92149378852878   10.94498504975593   19.27402769454995
O         9.75269322334909    5.87463087547530   14.00326065440141
C        14.28844898106796    4.66321277566547   10.99286484675418
H        15.03247995700954    4.85528435006225   10.23498373545648
C        13.14276845015872    7.99277460395557   18.09882321630812
C         8.75900493159095    8.14545226401729   13.10402105673550
H         8.24986866164961    9.02685463896603   13.47623397988704
H         8.12857426691358    7.55521648813684   12.44934861470648
H         9.67447161960891    8.42307157178254   12.59151154847033
C        12.40921542557020    3.45585513015854   11.81810164211086
H        11.65975799599594    2.68728867689151   11.72573050211232
C        13.45863388852188    6.07521990165857   14.35499262039905
C        14.30860394390421    5.42311573459318   12.14258344860615
H        15.05493140112117    6.19016433971356   12.28546468011534
C        16.20377936017549    7.45261359103271   21.02557495844306
H        16.98230975080642    7.31621156075552   21.76094904923830
C        13.35465825959445    2.84695024815077    9.52014857401137
C        12.30276661260455    9.12788646312137   18.21203058434510
C        13.36309121752721    5.22030227039773   13.14546635802649
C        15.00035525700816    6.63644093998233   19.10620164578127
H        14.86204180412818    5.84469896704618   18.38747413132966
C        13.02814154506629    7.10021013633172   17.00621211165883
H        13.84192836212491    6.39878981922625   16.87577931569566
C        15.41569466026058    8.57243868342712   21.03922046438498
H        15.55809555356758    9.33567385705317   21.79088326756912
C        12.41446559387935    4.21866250073221   12.97235685986823
H        11.68113524274526    4.00941064302774   13.73573174943540
C         7.54462186921246    6.73361581044149   15.13664416671953
H         7.64771206646765    6.06188124873659   15.98259897033654
H         7.00336224723455    6.24484168354793   14.33499372236423
H         7.07451797874951    7.66059703050683   15.44339707383874
C        15.98359894460084    6.47795837907660   20.05100638585697
H        16.59214682342526    5.58548617660730   20.04298050994039
C        12.25462769188874    1.78279661004044    9.47920510396180
H        12.37066432448806    1.06825679883745   10.29073228941261
H        12.31550222243828    1.23635876054533    8.54025937526209
H        11.26785186731436    2.23584044927951    9.53960083476145
C        14.71117135544394    2.13809186941146    9.39884561100195
H        15.52925998080352    2.85067481361661    9.34647577295421
H        14.73400607232250    1.52738596641777    8.49891720009636
H        14.87601140743280    1.49223840909826   10.25871302095940
C        13.15206279589278    3.79184484655960    8.32703323155642
H        12.19485763953317    4.30243192768537    8.41018063429411
H        13.16231701785657    3.22695430957348    7.39743353179699
H        13.93540545422567    4.54276099169839    8.27744777064932

