47
CSD_code = RIJDOG | q = 0 | S = 0 | Stoichiometry = C20H19ClN2O3PtS | MND = 4
Pt        3.93059471648491    1.01562298370343    2.24887494523150
S         2.49394492300799    0.09915691432704    3.73841032547262
Cl        5.11683244847386    1.77889647228717    3.99420260974317
O         2.89428434694798    0.30782766852365    0.62572720495807
N         5.02258235766560    1.78714973191947    0.77955954233819
C         6.86661367188177    3.29753586148840   -0.02369681967293
N         4.52918805270714    1.47701278886572   -0.45502674664139
C         3.44857045543384    0.73180125018021   -0.44714605249682
C         6.03685739241006    2.58926696984640    0.91721474440102
H         6.30193823764452    2.74665300926210    1.95664387050663
O         1.31250912887035    0.89496111541652    4.00083132595914
C         7.52251536951558    4.48526019734469    0.46824489517692
O         6.64820534429940    1.77580653281127   -1.89657990854904
H         5.81343379229922    1.49775877497148   -1.42330755888652
C         1.22959004376056   -0.91720396188212   -2.97130288821665
H         0.41451488425528   -1.62565820832617   -2.98351841106726
C         2.85885642222498    0.36222428092763   -1.74541361762464
C         8.50524703702961    5.12899707226230   -0.32604204441473
C         1.80548950888203   -0.54977585742060   -1.77075741046158
H         1.44946960373971   -0.96170296470283   -0.83873250795187
C         2.74113745467294    0.53656098028026   -4.13810287242749
H         3.10254465272599    0.96099700298930   -5.06283030936313
C         8.80837447144484    4.61167088106562   -1.60634327783590
H         9.56602664965251    5.10173106646699   -2.20004814371336
C         3.32320260904904    0.90788348844959   -2.94106266797989
H         4.13029034300302    1.62151377682055   -2.92500878321376
C         7.84402786815571    6.20720424842930    2.14449512624831
H         7.57413105151643    6.63781729077711    3.09722261321376
C         8.84088805386212    6.81166300739099    1.37285007294210
H         9.34283918439854    7.69559517975581    1.73653453295556
C         7.19695710925983    5.08154401167205    1.70290539409508
H         6.41216707378464    4.67170941933248    2.31782724227798
C         9.15650285812833    6.28156673917758    0.15223338596260
H         9.90678079885326    6.74444053697661   -0.47267214006183
C         1.69737849739594   -0.37555836471005   -4.15759021250200
H         1.24738715516569   -0.66233602545049   -5.09655435474294
C         7.16675538663642    2.85824187451970   -1.32088578361023
C         3.14392741282840   -0.45936396998564    5.34567546066109
H         3.96616728147310   -1.14138165710931    5.16313573091959
H         2.33906170211050   -0.93595995381092    5.89269023015341
H         3.49931789435222    0.41362512743582    5.88231759220552
C         1.92989104831844   -1.51774558685409    3.11652155826686
H         1.49671864813654   -1.35058217308628    2.13627883689881
H         1.18380273551158   -1.92006669259298    3.79196616857479
H         2.79051209845526   -2.17265507209939    3.03921184246995
C         8.14633794544719    3.52939664735476   -2.08959433600588
H         8.35253427813094    3.12549758500178   -3.06855840418656

