46
CSD_code = RIJFOI | q = -1 | S = 0 | Stoichiometry = C18H12N4O10ReS(1-) | MND = 6
Re        3.93940401080697    9.09196605101603    4.35286881796041
C         4.82426057323943    9.41873826892479    6.04337569299148
N         1.94286895238825    8.29693035846021    5.34184234035023
O         5.27181643454563    9.59664000555834    7.09453015739274
S        -5.92211629703417    7.95072245213962   11.95840358894055
O         5.16775073726165    6.27002192867591    4.07230854334725
C         4.74995764390610    7.34217887265646    4.16588792675962
N        -0.77380958591673    5.41596551948432    7.27983324209552
O         6.17519769026594   10.47479892314530    2.73094547955920
C         5.37786937058587    9.93888144437483    3.35701453779314
N         0.34604575081683    5.57247862686405    6.70286735851325
O         2.72011290310180   10.84943812940087    4.51915016405356
C         1.58422164431215   10.80118501731278    5.04827531491584
N        -1.07332593498718    6.53287847310532    7.96029330897710
O         0.73841979940157   11.67969339768949    5.07777897269803
C         1.27188064054507    9.48930424552942    5.86705550604621
H         1.65026747339216    9.69838689006746    6.87567397402949
H         0.18229483584317    9.36677326636818    5.91195906659926
O         2.62607910398878    8.81813708310952    2.70105388199145
C         1.44932386950042    8.40521263225492    2.85901811309311
O        -5.85517020237861    6.88507037495789   10.73250489968780
C         2.13167175088775    7.29553350511058    6.41426424355264
H         2.67596605634669    6.44012614294531    6.00388303340868
H         2.74145918672462    7.74648834031770    7.20516720891310
O         0.54800864732883    8.41452033532235    2.03816875482938
C         1.16053398022092    7.71503470804873    4.24380540737608
H         0.08147543124894    7.75324022218250    4.43794599157355
H         1.45045049165767    6.66624365736966    4.11238840552213
O        -7.28736773571087    8.02764772384710   12.35215974239174
C         0.84415646303388    6.80182861301927    6.98498689769474
O        -4.94443764542467    7.57631642059373   12.93132187685331
C        -0.06758033559672    7.43491687447838    7.80121545952133
H        -0.05536984798189    8.39284971339914    8.27339109589593
C        -2.72633332746507    7.88926305941416    9.10433811452311
H        -2.17376917368162    8.79158749165857    8.89292349518291
C        -2.26721847124314    6.65539574524064    8.66949131251330
C        -3.01972331459466    5.50595592222926    8.91610792929660
H        -2.65306570378315    4.56075147823357    8.54901492274649
C        -4.20747424597438    5.59537835708102    9.61135372382221
H        -4.80246787628639    4.71833154625648    9.80803694249027
C        -4.65779898954623    6.82508874126552   10.07835127243610
C        -3.91923055435785    7.99083330191203    9.82092806687048
C        -4.42001911863473    9.28714997759963   10.23186025169598
H        -3.98930446124211   10.15262500077622    9.74184097293687
C        -5.38099739745932    9.42249181503902   11.13865051948022
H        -5.81311322204429   10.34669934556985   11.46756347067656

