44
CSD_code = RIJHAV | q = 0 | S = 0 | Stoichiometry = C15H27NZn | MND = 3
C         4.16960157796889   14.20315979478485    2.29712128914050
C         5.62936988921729   14.15898612478332    2.37433241296011
C         6.05354979047263   13.45218898481496    1.19169888060180
C         4.93389856349070   13.03001857821590    0.49819500320291
C         3.77420937470851   13.48350479789089    1.17866188073640
C         3.28174112166753   14.94777762900200    3.24718296753396
H         2.51728525358922   15.49589007873627    2.68937537329065
H         3.86317030855803   15.68380075565732    3.80367386955220
C         2.55475755372821   14.00600092352159    4.21805197576137
H         1.91016480271197   14.58868702812695    4.89549094555903
H         1.92046457954330   13.33909724606203    3.63047353705568
C         2.75491271193190   12.03751517319530    5.56524021607794
H         3.44706951240670   11.41924443469062    6.13469738041898
H         2.32476560673342   11.43178717653091    4.77022453611798
H         1.94955091677502   12.37029756897956    6.23403285943163
C         4.09540855240275   13.93260045041327    6.06259258662428
H         3.34608563892420   14.30974023259421    6.77243212284976
H         4.63959784795514   14.77763719990899    5.65050281862397
H         4.79924210924758   13.29919769126704    6.60088640474847
C         6.47077128075012   15.24859484788109    2.99125260992412
H         7.50884368872084   14.93495944249187    3.07851927576092
H         6.12265433001385   15.53591069128743    3.98179781770553
H         6.44228550768102   16.13618717039224    2.35406552350674
C         7.47889446381422   13.29921119100837    0.75541574439708
H         8.14060069565868   13.15073966874935    1.60788945204175
H         7.81244996482609   14.19272835407308    0.22221433050224
H         7.58739408891206   12.44837380374028    0.08659121041918
C         4.93994443881708   12.24621556095073   -0.77913154460591
H         5.63303722861253   12.68554191271263   -1.49625190577469
H         3.94900992012373   12.23294895153846   -1.22511982042527
H         5.24497809254203   11.21208176696044   -0.60821192051347
C         2.36812142898511   13.27918349820753    0.69719897293478
H         2.27327938497132   13.60358831408039   -0.33968890929307
H         1.66368494784676   13.85516768769701    1.29325717012256
H         2.07674404544942   12.22860787365229    0.74398934648151
C         4.86425823530422   10.35708142029046    2.99362462723996
H         4.61360862805104    9.79202885596757    3.89099276759282
H         3.99741944939465   10.30000732508350    2.33359433357888
C         6.04577087053090    9.68308234622278    2.30233279290700
H         6.32216021410176   10.21457345383956    1.39567077972835
H         5.78934730810928    8.65728276794428    2.02778473221937
H         6.91630182665135    9.64726605406702    2.95371351671802
N         3.47444879867017   13.16694449417304    4.98842423395053
Zn        5.10544544942134   12.35756067781588    3.37840780259581

