73
CSD_code = RIJHEZ | q = 0 | S = 0 | Stoichiometry = C26H44N2Zn | MND = 4
C         6.83855969045729   11.66527103406621    4.22704642943313
C         8.22585678911150   12.06180696045693    3.94371623919496
C         8.93074644091180   12.07478227838325    5.11522600335767
C         8.07390583802791   11.62820612011262    6.17500549739186
C         6.83673907763055   11.35836546034171    5.65748785623891
C         8.75270631065762   12.37541245452740    2.58009165050817
H         8.25203166566651   11.75948521263603    1.83271806104744
H         9.81617627110737   12.12845929039902    2.53980307887931
C         8.61650819900758   13.85908594533553    2.21414276751901
H         9.08583800092612   14.44535091352735    3.00804315139622
H         9.16087772413343   14.05514746902899    1.27513835455769
C         6.63884013376197   13.78306112422503    0.85586393974077
H         5.61977557404587   14.14902733109263    0.76848603067240
H         6.61320445485986   12.69796855093742    0.88190159015406
H         7.21393747074244   14.09959224521071   -0.02531631898789
C         7.19079895081182   15.76531272781347    2.00548474732920
H         7.72791556447112   16.13225168574575    1.11952180165365
H         7.65201496462063   16.20147961686218    2.88873639467023
H         6.15482545779414   16.09018358053045    1.95726914727331
C        10.36413608382631   12.45308884233745    5.32145211695144
H        10.78120464779104   12.92545522845369    4.43524568002741
H        10.95958544009972   11.56745371650928    5.54964892481739
H        10.47305147671360   13.14255762567884    6.15971377053028
C         8.53150518243021   11.49393000442840    7.59271060981166
H         8.93543706862727   12.43685538872710    7.96731083117496
H         9.32327442029183   10.74764749951581    7.66433452610211
H         7.71693752030281   11.18550557141252    8.24357628757837
C         5.66539301094197   10.75394986789781    6.36693695819487
H         5.68165490233604    9.66655256224968    6.26736598049466
H         4.72810976609178   11.11655651274189    5.95022299079391
H         5.67911638970125   10.98885791671713    7.42963222403070
C         6.15522945173158   10.65661642752527    3.31499321645160
H         6.70634788509365    9.71388714177167    3.34766318400643
H         6.11662206647693   10.98848165115466    2.28006984266524
H         5.13826667950199   10.45835248748966    3.64553366267774
C         3.83805408464557   14.11081189873972    3.69317521871092
C         3.95160044036552   15.55342893991238    3.95482855266975
C         3.80779760668461   16.23010885346384    2.77551845255323
C         3.53008990447616   15.28608724116107    1.73215706343966
C         3.52059864725327   14.02735019828283    2.26735834568971
C         4.17180176990939   16.15060038882167    5.30764497267586
H         3.68037705552873   15.54598958555045    6.07023034446188
H         3.71610062313723   17.14297492054923    5.34181661374175
C         5.65766888886367   16.32089794385224    5.64967117638164
H         6.12569633051178   16.88676978758181    4.84034572996006
H         5.75381319831397   16.90736439449114    6.57881202319324
C         7.81459808038148   15.31024928869646    5.84083320853009
H         8.07952677814872   15.92416641668533    6.71317743399587
H         8.13544695069950   15.83570995696371    4.94413334331446
H         8.34212092312046   14.36160940394605    5.89603558242765
C         6.00120322685803   14.38932983347626    7.03259742253789
H         6.56353053284104   13.46442250263214    7.12453275753270
H         4.94252670318921   14.14847435329909    7.02735452554501
H         6.21137931560667   15.02880489507996    7.90112073574381
C         3.88810017723864   17.70675714660790    2.54558677618491
H         4.23265050487767   18.22846520636465    3.43516452566830
H         2.90685582208620   18.10039712543286    2.27567561382094
H         4.56911691669856   17.94249709909085    1.72635780579091
C         3.28957148413947   15.68737286184694    0.31150782876342
H         3.15148708546079   14.81804394343133   -0.32687475255384
H         4.12369017556696   16.27456196357023   -0.07832758396805
H         2.39370168462511   16.30506425520808    0.24052163548302
C         3.15543173396048   12.74930095430676    1.57887953106694
H         2.08393498498791   12.55987391210972    1.67420171197029
H         3.68720645253731   11.90632199115198    2.01527988051101
H         3.39101389994967   12.78761736864710    0.51658829762385
C         2.99661864000355   13.25349883866842    4.62769852740392
H         1.96221420196446   13.60382580303210    4.60022350481957
H         3.34032863004688   13.29901424507007    5.65848003797271
H         3.00288045097414   12.21222275855087    4.31390783174873
N         7.22879464497357   14.30884592844459    2.08419881856230
N         6.37914513721189   15.05384298419258    5.78800634989553
Zn        5.89569574145321   13.57022636524500    3.95130292779400

