108
CSD_code = RIJJIF | q = 0 | S = 0 | Stoichiometry = C41H62ClIrP2Si | MND = 3
C        12.72479601045864    6.63759560797523    5.16467231133045
C        12.00273861664965    7.46958328919197    6.01328622953264
C        12.61868604306141    8.56481701488665    6.61274076124759
H        12.04188346639837    9.20076400897188    7.27094193232770
C        13.95756253041737    8.82049648891342    6.39135685393681
H        14.44125670774235    9.65394713923730    6.88159768771920
C        14.68413318435357    8.00064936336685    5.54569725628126
H        15.74013088398404    8.18114703908343    5.40558804161522
C        14.07055882064029    6.92898535443857    4.90769985770439
C        14.89807630192326    6.03414004095763    4.06736868424724
C        15.87214576938847    6.53362003687077    3.19170518856881
C        16.86211434575280    5.68367100294192    2.70998791085780
H        17.64437846799742    6.09560426076761    2.08518667766147
C        16.89944134049769    4.34017410315909    3.04934911091004
C        15.86117876635817    3.82755309088443    3.81701999427133
H        15.85172576602844    2.77282674151908    4.06142082116170
C        14.86160758004686    4.64368453936795    4.32805435883291
C        15.87935231450018    7.96495045764611    2.73202929184855
H        16.68218535910851    8.52449961395322    3.21248179156183
H        14.93494575743760    8.45521361280141    2.95348495072316
H        16.05547087802655    8.00639937289300    1.65683640791914
C        18.04379102832597    3.46901084314292    2.62310708143775
H        18.47934453585172    3.81675261793761    1.68769796875853
H        17.72976220397623    2.43328321545479    2.50832739932484
H        18.82544668548372    3.49710565477729    3.38408172361968
C        13.72901167315995    4.08893852387974    5.11726998434119
H        13.81977005208230    4.37133734583635    6.16787114688830
H        13.71685575104315    3.00172436683032    5.06075365305089
C        10.57500639558368    7.21552563490472    6.31476824104305
C         9.59116186351546    7.79150308736977    5.51493228595038
C         8.25568007232145    7.54944163124833    5.79769955454630
H         7.49384740756217    7.98710106272064    5.16646552594033
C         7.88150362503910    6.75806245008847    6.87152334029507
C         8.87429224433965    6.21935437764744    7.67803385090147
H         8.59274255195109    5.60750249906767    8.52415739129886
C        10.21653332122902    6.43718354693349    7.41562538788680
C         9.98835141669852    8.68376412757549    4.37728807138719
H         9.12208194886663    8.96229084336347    3.78286622721395
H        10.71629531772351    8.18339373369062    3.74262658451687
H        10.45293390092506    9.59286066294466    4.75997682127791
C         6.43717124741773    6.48761641447320    7.17307125756423
H         6.16926299756315    6.89136379521587    8.14944784806549
H         6.25078689803053    5.41469243571538    7.19310463645747
H         5.79179667494213    6.93845821963495    6.42294068743597
C        11.27319185755168    5.82117615868921    8.28234321357149
H        10.84196766926777    5.43861512520457    9.20464855946751
H        12.04984600601726    6.54514543336792    8.52490550304043
H        11.74255328902257    4.99194695586702    7.75350088664082
C        12.17295552190553    4.66915046940491   -0.83012378171666
H        12.12130320699582    5.40561779199832   -1.62732458776409
H        11.84565354808693    3.71473200990822   -1.23233191787371
C        14.33805412909062    2.72011754764368   -0.16822777996932
C        13.88707305861455    2.15029030580604    1.18121067645743
H        12.85567427889504    2.41736923277519    1.39862041185510
H        14.51542552021941    2.54349905327538    1.97860608101224
H        13.97308653107560    1.06400979246297    1.18512113626023
C        13.66538244254489    1.94337950435606   -1.30234030238669
H        14.15481747190529    0.97519955931513   -1.40729995640834
H        13.73873316386237    2.45875192913714   -2.25624671171242
H        12.61757052503404    1.74710005905215   -1.08932654809354
C        15.84909572274498    2.50468335265931   -0.25219460661885
H        16.36862891509482    3.14766023189963    0.45253261411176
H        16.23164522396048    2.67953157302462   -1.25430556472944
H        16.07795283731478    1.47046793006704    0.00791155467423
C        14.95647921536358    5.49744956781673   -1.36623982036835
C        14.86021283501134    4.92650022745895   -2.77836271817122
H        13.82628730507052    4.86649102989598   -3.11372573555461
H        15.30506841292491    3.93730317956804   -2.84127445782334
H        15.39857091776292    5.57508350620647   -3.47015859556224
C        16.41616978308161    5.54949319303591   -0.90235118540530
H        16.92046584260744    6.40277422800361   -1.35646369778751
H        16.97302540523473    4.66185071618352   -1.18077727472248
H        16.46246679149907    5.66735031065667    0.17927513174650
C        14.46882754867471    6.94883156289308   -1.37885820841239
H        15.08187688671281    7.54071830444693   -2.05880303790020
H        14.56081534631501    7.38193066707425   -0.38398681710840
H        13.43887463374751    7.03691381468491   -1.71305273012581
C         9.68027020829278    3.98388577219467    0.68639000547054
C        10.25645067019449    2.58196985051532    0.88284938394497
H         9.44825940758390    1.85297479643659    0.91902673699983
H        10.78665958444194    2.54787197255007    1.83235036393624
H        10.92396540630103    2.29049582311692    0.07775575434869
C         8.86835515788390    4.03191149349911   -0.60522036215534
H         9.49995247888517    3.88539716026009   -1.47975136594624
H         8.34123721966471    4.97597498017592   -0.70787525785994
H         8.12266999796618    3.23753328798392   -0.59383493539882
C         8.79167280882323    4.24418177056412    1.90405830622094
H         8.08920933186429    5.05265320552805    1.74541213198699
H         9.40377180028744    4.46516513572181    2.77590228845378
H         8.21068825752976    3.35005745634124    2.12333739762418
C        10.55099143356710    6.93916744683899    0.28597202413138
C        10.29208622729007    7.22028252284536   -1.19497113405643
H         9.74386038303765    8.15709334035363   -1.28809966403221
H         9.70176181917454    6.43793412346631   -1.66292528021470
H        11.21848697959175    7.33688625936043   -1.75180501589815
C         9.29201116272740    7.25216853981176    1.09023064549944
H         9.14169912346592    8.33091063725399    1.11709817873549
H         9.39974094727761    6.89593300604925    2.11055977150663
H         8.40884240400601    6.81043180698532    0.63867695844616
C        11.66008878553278    7.85826700791253    0.79941600830122
H        12.58981894604411    7.67383949171624    0.27448921227430
H        11.82730349068608    7.67202099967092    1.86034583696717
H        11.38633451515128    8.90286906435317    0.66032927172453
Si       12.20783938193930    5.00781004251221    4.28449593428859
P        13.89476991434435    4.58074525572035   -0.04924322297480
P        11.18072642429927    5.17181250615538    0.68363739171002
Cl       10.50789148530639    4.19079610668256    5.20067008254562
Ir       12.94093367934241    5.05603555035678    2.09728003302376

