107
CSD_code = RIJJUR | q = 0 | S = 0 | Stoichiometry = C38H65P2RhSi | MND = 3
C        11.02504757714886   -0.24832711729842   10.05353587027877
H        10.72224149047479   -0.03292907364280   11.07779166553119
H        11.75282486179644   -1.05998408753421   10.06382209627591
C        11.16017408178613    2.79491061470028   10.25830803401091
C         9.69181390816419    2.60958087523436   10.63975006716064
H         9.26131020118531    3.56481899271769   10.93840913164468
H         9.59310879749879    1.92610890237952   11.47790484831524
H         9.12675275954784    2.22685035233796    9.77759436297937
C        11.93348031060888    3.10293807667979   11.53679670176458
H        11.41822535138833    3.89974834663806   12.07498518089773
H        12.94420942473190    3.44776384015893   11.34046293801532
H        11.97240706270550    2.23332262673419   12.18966941621734
C        11.20857758768281    3.98061260853382    9.28674258461897
H        10.54741242531169    3.77509495116803    8.43652328391250
H        12.20930957846920    4.16895136766543    8.90835010735362
H        10.85538810618200    4.88752230545008    9.77697537594064
C        13.57930581531076    1.11966432850695    9.39638257367003
C        14.04874656590079    0.73559189046239   10.79934579633493
H        13.43236627244085   -0.05389897010229   11.22395456138059
H        14.04357830666437    1.57967797740522   11.47880810248202
H        15.07264681405806    0.36487499250941   10.74483570067308
C        14.03503157638284    0.02413772566379    8.42774781308785
H        13.61954461432666    0.18815124866591    7.43474225675761
H        13.74990672780556   -0.96353952725164    8.78375151457453
H        15.12166431021756    0.03451538674881    8.34170623315292
C        14.25060268908856    2.41401046505985    8.93569151019343
H        15.32919601020219    2.26975059403162    8.87046471585549
H        14.07123757416902    3.23740561956270    9.62024460104825
H        13.88844569292471    2.69305579866959    7.94638895025983
C         8.21924836973478   -1.26591035076227   10.18528340556758
C         7.13734041532019   -2.02833234623045    9.42407367974068
H         7.47214161799549   -3.02063192705611    9.13858457698920
H         6.84156999349943   -1.47189211779282    8.53752119263875
H         6.25948164597251   -2.15109732269277   10.05806309818807
C         8.78305569832211   -2.13677838835811   11.30632942572904
H         7.96335796646707   -2.47536947912173   11.93957500580852
H         9.47620372079172   -1.58429902638756   11.93533632004670
H         9.29349325516219   -3.01344364613026   10.92318730582435
C         7.54904807763516   -0.03454711534033   10.79466734140084
H         7.24991760109606    0.65493447303212   10.00710542542961
H         8.21041266952629    0.47775809866349   11.48472924212487
H         6.65958230075037   -0.32953102687999   11.34981890908109
C        10.06381434670380   -2.08097612113167    7.83726071683804
C        11.26947937998781   -1.55672530365983    7.05808902965752
H        12.14041903433403   -1.48898844940418    7.69665584500093
H        11.03635183934869   -0.56074853908729    6.64972555285073
H        11.50645165894375   -2.22151532716749    6.22845002524402
C         8.96516505559231   -2.33436100240226    6.80090479488823
H         8.58701975213349   -1.38559835579170    6.42136558649200
H         8.13918671985300   -2.91235782117361    7.19703426562285
H         9.37944106264738   -2.89300366274797    5.96232621296726
C        10.44837463540432   -3.37608456969062    8.54623038385117
H        10.91743817605318   -4.05164937077063    7.83078859551778
H         9.57916495625462   -3.88451091323147    8.95431860983055
H        11.16032342488664   -3.19637356093281    9.35002579151817
C         6.64720321845842    2.96051835141188    6.78621983198779
C         6.26661667567914    3.25093506648607    8.08816686559972
H         6.76708784786378    2.75113913358110    8.90599881219285
C         5.26441976003358    4.16700625539337    8.35399429043970
H         4.98127315040143    4.38022716423940    9.37575055154383
C         4.62390223412036    4.81207667784700    7.30999015936550
H         3.84018658206102    5.52879418419166    7.51194252777691
C         4.99294562701636    4.53521670817802    6.00402925876451
H         4.49527900248507    5.03633599907447    5.18466394205310
C         5.99482253224438    3.61615562265154    5.74873128319734
H         6.27485940149751    3.39980692669226    4.72636871635400
C         7.47237372675513    0.72032661179461    4.85695076597576
C         8.40780496564809    0.85533037584255    3.83009350227693
C         8.17387235108074    0.25825900987074    2.60538902562007
H         8.89951906444922    0.34774874151971    1.81089870934180
C         7.00390074159383   -0.45853552184717    2.38108720414342
C         6.08802090409781   -0.58916190330369    3.41357625233429
H         5.18072077018839   -1.15030184651989    3.23662377918524
C         6.31545212441025   -0.02004436447499    4.66001664314799
C         5.32129883818475   -0.19121018247150    5.78211527861862
H         5.77167808281587    0.22160383340620    6.69186050448580
C         4.03995469879280    0.59114788331953    5.49041320200135
H         4.26337797382314    1.64949187281468    5.37947292059549
H         3.33023481949337    0.47379406370836    6.30697736862973
H         3.57439419147794    0.23683363596094    4.57340007416359
C         5.00579172449893   -1.66753232916502    6.03076698747964
H         4.44884869940225   -2.09137300845936    5.19895609193873
H         4.40511170533364   -1.77752702505357    6.93149739009944
H         5.92481096171214   -2.23582411813282    6.15190449627573
C         6.73514697349314   -1.10049596534591    1.04082359355142
H         5.75667310048191   -1.59288076148876    1.08794509660738
C         7.78737115723765   -2.16774162681381    0.73143981157014
H         8.77562392419240   -1.72193423141572    0.64853879345728
H         7.55649487733638   -2.66777877973823   -0.20724172103521
H         7.81366664697158   -2.91214081157234    1.52462505589010
C         6.68421985822904   -0.05118911039972   -0.07127345973931
H         5.93388657766354    0.70326852031121    0.15574125579470
H         6.43069495946322   -0.51773889851327   -1.02136173817854
H         7.64574274183144    0.44474208818539   -0.17918334861878
C         9.67487487669602    1.61273167634572    4.16008008862617
H        10.41542145389557    0.85606342946376    4.46335443201392
C        10.24450460855259    2.38815057598427    2.97177781367723
H        10.58770060207915    1.72179505413711    2.18329857100315
H        11.09377813779991    2.99028076381506    3.29212478999503
H         9.48749980675618    3.05290890296417    2.55873006327303
C         9.43244055731065    2.54022708634336    5.35147614963033
H         9.13177292080600    3.53257611113292    5.02091090940561
H        10.37581839623859    2.67375271493900    5.92187486351969
Si        8.01905868109957    1.68284545849935    6.39772481946622
P        11.67553418437918    1.29586795210388    9.18369863314447
P         9.53970793208371   -0.62192225464127    8.95476717004055
Rh        9.84716477869781    1.24752633840092    7.70673557816297

