37
CSD_code = RIJKOM | q = 0 | S = 0 | Stoichiometry = C13H17BrClN3PdS | MND = 4
Pd        2.50848067158481    2.95037620850533    2.62121832379249
Br        0.74575953237582    0.82864279300378    7.51321207650725
Cl        3.88178542843885    1.21558992116311    2.59358656842429
S         1.29389594649139    2.60599808717365    5.00581266271335
N         1.41005002854175    4.62406105270337    2.64292525433939
N         4.02559606456261    5.55786313278105    2.57897009416029
N         4.06551805919932    4.42669067694301    3.29712362985829
C         1.05007874690764    1.78206713937308    1.77820761433908
H         1.02967219319422    0.79662640427257    2.25141021525994
H         1.27583740283180    1.65356221304642    0.71128025007963
H         0.06531891148206    2.25467038156921    1.88788964337803
C         0.39211191930969    2.33418793148489    6.45912237134840
C        -0.55458692576459    3.28963819991481    6.70952846175340
H        -1.21096159153553    3.27592712128374    7.56070726335616
C        -0.54773817658971    4.28192514881443    5.72731337269032
H        -1.20756307850927    5.13124974677013    5.73512669959466
C         0.38023581173873    4.06027177272873    4.72640425148900
C         0.65229418485234    4.92643053462687    3.63583780235594
H         0.18533632323914    5.91541349939169    3.69072643016879
C         1.74559431182331    5.63135816717729    1.67104886251439
H         1.47687455523247    6.63434150556073    2.03746489204129
H         1.19578563835016    5.43684176078326    0.74233634223760
C         3.25910643352269    5.56785911228476    1.36097716019609
H         3.47032412576310    4.62186777477725    0.82871831092575
H         3.55346261735484    6.41594411466899    0.74122407618929
C         4.82149229188700    7.92267393638480    2.65288112895665
H         5.38570269084398    8.54223191860413    3.34375904498344
H         3.84392848269122    8.37888170700876    2.49621156272661
H         5.34742774807780    7.90345591645540    1.69814632979049
C         4.69082196124164    6.55237802943368    3.21092606765193
C         5.17886189561183    6.01127041618312    4.38277200648588
H         5.76302229623152    6.51195109021743    5.12732075894048
C         4.75533386357978    4.67095687716094    4.39726992594498
C         4.96684693117276    3.60380814468889    5.40808187272870
H         4.49322610793642    3.86817081770746    6.35303234904440
H         6.02925613145135    3.45328614441322    5.58917065344243
H         4.53431046488163    2.67443060094251    5.03115566958973

