57
CSD_code = RIJLAZ | q = 0 | S = 0 | Stoichiometry = C20H32Cl2N2Ru | MND = 9
Ru       -2.14117872159435   13.65456216146264   10.46464177314883
Cl       -1.66962454361679   12.96135779872885   12.66342597502111
Cl       -3.90556071678719   14.84336917819345   11.47851336107070
N         0.39051658409456   15.22909920311352   11.06591609879447
N        -1.13167747648484   16.50947836791114   10.24896771456408
C         1.37708013988143   14.33844061369629   13.12057162662742
H         1.96990512440614   13.51817885805039   13.51355348820145
H         0.42141794497699   14.35148385707216   13.63697526477690
H         1.90134172851964   15.27370306108510   13.30293433974182
C         1.13113806053675   14.12513331851615   11.63134181632402
H         2.08054861416839   14.03986781098475   11.09187886997404
H         0.54245131587650   13.21489521442466   11.49709673136182
C        -0.90830140314926   15.25257250219232   10.69289168898978
C         0.00621133568857   17.26167131951916   10.35984976523309
H         0.04444448229682   18.28876575516928   10.06091919428574
C         0.96235411704977   16.45732517633676   10.87234831068617
H         1.98935387448134   16.65303980343043   11.10215842506978
C        -2.37387407427451   17.06792835483524    9.77167538354298
H        -2.17589484196455   17.61254151088751    8.84222474104433
H        -3.06694919328052   16.24631254997489    9.57638413984248
C        -2.99391124144714   17.99890383055351   10.81473831482858
H        -2.30786333746423   18.82095656267281   11.02463334217308
H        -3.14621819850814   17.42293384493239   11.72802777171726
C        -4.33920623136856   18.53291629332366   10.33361188772680
H        -4.97847018076888   17.67762365752412   10.10949858473400
H        -4.20227969016504   19.10772944932490    9.41328504083834
C        -5.04004058042463   19.40273999365443   11.37645931669190
H        -6.05240939284955   19.61537264062830   11.02562322767761
H        -5.12349809972967   18.83883018025330   12.30657917048677
C        -4.32568323390621   20.72337715419114   11.64083850152319
H        -4.91204887902036   21.33941489280336   12.31868400116321
H        -4.18643958875754   21.27487829169699   10.71274543757953
H        -3.35225937252997   20.55839272918030   12.09506094145750
C         0.28958790062005   13.39797317999014    7.98132440432760
H         0.36796750577737   12.98271464144611    6.97485775924645
H         1.11797039801411   13.01543786259138    8.57352564721803
H         0.38073846949313   14.48055944963231    7.90605583032155
C        -1.02960525732757   13.00527060045754    8.58256832442661
C        -2.22108449230456   13.68512159379002    8.19273907671869
H        -2.16247361866053   14.49427337293826    7.47257654636706
C        -3.46401541073918   13.26032200473379    8.68123156851162
H        -4.36764745163696   13.76569684373411    8.35430239990113
C        -3.58282584063517   12.11210283978155    9.51653327988278
C        -2.40800104329516   11.44959137658948    9.88520048262507
H        -2.45777831956369   10.55674693862865   10.49714692088413
C        -1.13785841169586   11.88680712935178    9.42765385820683
H        -0.25445174091813   11.30923061281638    9.67624006593769
C        -4.94600641562755   11.61270593655230    9.93302240440782
H        -5.67480054202825   12.40150292128039    9.71321737330299
C        -5.30726223941466   10.37139238865672    9.10998657039934
H        -6.30559239881723   10.03008205421908    9.37257137644920
H        -4.60478462728057    9.56341949433369    9.30669957903758
H        -5.28706978076975   10.59412867078571    8.04411044844912
C        -5.01194468536353   11.31880376495260   11.43244102735165
H        -6.04003589234533   11.12297622028376   11.72738026411393
H        -4.65150536253787   12.17674151650824   11.99819485932093
H        -4.40989506682554   10.45220264962980   11.69636568568855

