43
CSD_code = RIJLON | q = 0 | S = 0 | Stoichiometry = C15H22Cl2N2ORu | MND = 9
C         5.54090761130087   -0.51032681474748   16.81229779075370
C         3.39625231196350   -2.07225863056248   14.53446611502632
H         4.08518561870499   -2.86474379012199   14.81214545017250
H         3.70104494027002   -1.64235098081125   13.58341623935223
H         2.40432599233678   -2.50011771220972   14.42620448762641
C         3.38105759532607   -1.02183551869897   15.63871262911348
H         2.64668942660131   -0.23962249837848   15.41758325673753
H         3.13241164088516   -1.50659593212703   16.58571033688394
C         5.18941567071381    0.43211550388936   14.82175705193402
H         4.66144279865420    0.65820034650991   13.91843721543854
C         6.39479656416728    0.85066055242916   15.26360932256627
H         7.11720770688040    1.49379133849415   14.80526743418394
C         7.75065886502262    0.55712609030764   17.29880067003338
H         8.65480572253702    0.28215510551233   16.74927463656605
H         7.69212332490820   -0.06136288160651   18.19779356850977
C         7.82621002223371    2.03597961481521   17.67888143596687
H         8.73679333534754    2.19996227072144   18.27568953470994
H         7.89395635308471    2.66963056200488   16.77956808003098
C         6.70876518715049    3.73484268004228   18.85463476898836
H         6.81277228777325    4.40388683609557   17.98553642896888
H         7.57948033458055    3.89778297406309   19.50974855164212
C         5.42203068027150    4.04434608923490   19.60189789860146
H         5.31851982228051    3.38575313513052   20.46007900325544
H         4.56702707402785    3.90404077269807   18.94567840227635
H         5.43677422137612    5.07440244816811   19.94648135109324
C         3.35494576199449   -0.61672955523739   19.43749484337339
H         2.41405914873719   -0.31944819158862   18.98990676731694
C         3.51638549515185   -1.90768787284834   19.97067260860412
H         2.70114847696327   -2.62077798601053   19.90619417971623
C         4.69244121487277   -2.26001814460708   20.66689571592281
H         4.77750742052292   -3.23536572331020   21.13001024626573
C         5.73030330760380   -1.32103467725527   20.79157690240961
H         6.62047585370027   -1.57833714070960   21.35562504977581
C         5.59407237744762   -0.02337007807316   20.25899040828254
H         6.35980790688714    0.72443592478724   20.41530802539153
C         4.42608287889649    0.30609800547435   19.53800999361273
H         4.30794760123783    1.31555827843586   19.16081930574638
Cl        4.59673038223597   -3.41905355832214   17.35897027690823
Cl        7.42622238594127   -2.43744192251414   18.29508746293250
N         4.67551031272023   -0.39530229814665   15.78292292559465
N         6.59374787215902    0.27302407392092   16.48851414145911
O         6.68467199192829    2.39148826349582   18.42119807680496
Ru        5.27038450260254   -1.51289895834463   18.55753140944893

