57
CSD_code = RIJLED | q = 1 | S = 0 | Stoichiometry = C21H30ClN4Ru(1+) | MND = 9
C        -0.13779267371393    2.19618807657969    8.13438348446903
H        -0.61773370873103    2.78039521173386    8.91459236919662
H        -0.07615039424529    1.16358806237211    8.46377805271686
H        -0.74502889230306    2.23504498842030    7.23405207629092
C         1.26286276488875    2.71592476096104    7.83288827143884
H         1.89533969557342    2.65093219487115    8.72344501151885
H         1.70353626627584    2.12217256145982    7.02867910521622
C         0.81872117421048    5.12206980772200    8.20230390076006
H         0.53599710839618    4.97199546629552    9.22333855937321
C         0.86544526630244    6.25679175895451    7.47007296923363
H         0.62989406793203    7.26771842253723    7.72941424738344
C         1.53855732487605    4.55723843325568    6.17239619501899
C         1.54042193822182    6.77529009369533    5.10933049459846
H         1.10267320084241    7.75451029778144    5.32234504413603
H         2.62608125509206    6.88889729397487    4.95017852951658
C         0.13528141986968    6.89336256930467    3.03354293782349
H        -0.11100988094341    7.92922280530012    3.13897778129466
C        -0.21119584877167    5.99378875022582    2.08675282422649
H        -0.81572803811921    6.11204992724794    1.21172246177591
C         1.08676420028500    4.93127704660455    3.54991655451893
C         0.17158393437024    3.58930329201830    1.65428283552126
H         0.81087326982283    2.81387418975883    2.08108637683411
H         0.46751490316369    3.77964989340257    0.61815547396678
C        -1.28089890227233    3.13167193281520    1.71832879489540
H        -1.54946558223049    2.90919717926237    2.74751122922072
H        -1.40051941553365    2.22826688338022    1.12822976248621
H        -1.95366402592590    3.89085977003058    1.32927791490408
C         2.69067814985369    0.58622741031984    2.75057028678719
H         2.62503828484988    0.74167900327064    1.67604000466806
H         1.69184175826775    0.37023242301191    3.13602076891454
H         3.31362371024032   -0.28657140631831    2.94277926674937
C         3.25606228653011    1.78570483531552    3.44303029987720
C         3.56014994793381    2.96523428571929    2.75897112044052
H         3.43605362778151    3.01570590166563    1.68272698118925
C         4.12054773724303    4.07788072813258    3.44465999488908
H         4.42034603140515    4.95116132858619    2.87288122523612
C         4.44896530996903    4.00337148347185    4.81281479047482
C         4.14210339388235    2.79317025905366    5.50136250322389
H         4.45091107547023    2.67513126112698    6.53339268644257
C         3.54087169033768    1.72279125712095    4.83947934313423
H         3.37148306970285    0.78682729296006    5.36201228600551
C         5.28569893035280    5.08873982165626    5.44930359727921
H         5.12389316845966    6.01804689074677    4.88885798222921
C         6.76168746426194    4.69508588509136    5.30273903129684
H         6.96214439326255    3.76435710688848    5.82883795727547
H         7.39579199257737    5.47113143478744    5.72241347782389
H         7.02500033356280    4.56287747720022    4.25575426084367
C         4.94950840674255    5.34461982074951    6.91854522868084
H         3.87903283205054    5.48422431779509    7.05764857629363
H         5.46080426317365    6.24104705630782    7.25903416337573
H         5.27783062843166    4.52021908404398    7.54602701938665
Cl        0.25694438471615    2.28147027557581    4.69277008899384
N         1.22932369454691    4.09430816858403    7.39441545540462
N         1.31173648315646    5.89428383803210    6.22449366545586
N         0.93602744941083    6.22562998692989    3.92466680089495
N         0.37491827275750    4.80071798767375    2.41897485458185
Ru        2.21682080182550    3.57501311433034    4.53859302379167

