138
CSD_code = RIJNOQ | q = 0 | S = 0 | Stoichiometry = C31H90O4Si12Zr | MND = 4
Zr        7.83338690647696    5.74740846776989    4.74227143386293
Si       11.13779836721343    5.34026319529540    5.58750356125490
Si       11.92707615808029    3.61598893683134    6.98593334453223
Si       11.52604193230349    5.06448626689106    3.25014718503219
Si       11.88014595942819    7.47258956888734    6.27361540364197
Si        5.98704779521756    3.76640068907519    2.86530365229086
Si        5.14887331024050    4.16021769429523    0.70543836318519
Si        4.42033695123545    3.19088285439016    4.57186429116874
Si        7.64650867072841    2.06145667508357    2.93795049709928
Si        7.56905472990873    9.11913738911237    4.35099924233657
Si        5.20723408960973    8.80908439304114    4.49029579281797
Si        8.10777812802557   10.86382308434905    5.85186400996919
Si        8.16395034170553    9.37427586445676    2.07663135369491
O         9.54010248959633    5.34222617182209    5.58956394471685
O         6.93493178076436    5.02294889085932    3.19186211744313
O         8.16850938495547    7.66749009629349    4.67259710407961
O         6.62014963675913    5.14913198127195    6.09190140515290
C        11.05474321925478    1.90250924188091    7.06887036552990
H        11.12307261626867    1.37193057214592    6.12370893734053
H        10.00119199597881    2.00762542859101    7.31143593653437
H        11.50096558965321    1.26555242938855    7.82921865820675
C        11.97262353196744    4.22708954486272    8.80836644179541
H        12.42060894821251    3.49465871704654    9.47435291444623
H        10.97523577942167    4.43985580024646    9.18246902754823
H        12.55331393975294    5.14074607973609    8.89444558398951
C        13.74147745669849    3.26347066705232    6.49056906050344
H        13.81327761639552    2.84671053544761    5.49132156048128
H        14.21107534356552    2.56144745733593    7.17163817955358
H        14.33129627569677    4.17377857412156    6.50474826012053
C        12.00109364242754    3.32789078201011    2.56019972424648
H        11.83022044023873    3.25386563693877    1.48969334605034
H        11.46806104616190    2.51047451566739    3.03365967565203
H        13.06066897399808    3.15832976990094    2.72543478238668
C         9.81292249182575    5.56748865512858    2.52838618590259
H         9.41709749090223    6.39475037984350    3.14160788701717
H         9.11197672919202    4.72861973694297    2.58055713763273
H         9.84090532635077    5.90787382402876    1.49411905185312
C        12.80670742563162    6.18804441497660    2.35571108666974
H        12.92968057315054    5.88858972646195    1.31900019273567
H        13.77896092022790    6.10169868891378    2.82932766125226
H        12.53823084119955    7.23855099837955    2.35866461202516
C        11.06283833917692    8.19166055853083    7.85918664530025
H        10.05031196526428    8.52155425856952    7.64648176746573
H        11.61061537975428    9.04361448924929    8.25498354846706
H        11.00809281286949    7.44760574966804    8.64898561369160
C        11.62132562405733    8.78954040142238    4.90582709784698
H        12.22581032232176    8.56831589617249    4.03285845202898
H        11.89122525973961    9.78861814655572    5.23193271378330
H        10.57896736613748    8.80870219494934    4.59776646765439
C        13.76480011723072    7.41406080642336    6.61465670323237
H        14.30992497399800    7.04579175730254    5.75176101263839
H        14.00541492900442    6.76665861007984    7.45122896528783
H        14.15299503390353    8.40012000080095    6.84679437181036
C         4.30613432399668    2.56872312968546    0.06296390691300
H         3.99904221844851    2.67309514721516   -0.97229856717662
H         3.42115490771531    2.32742200210936    0.64020449696406
H         4.97394458966552    1.71541574565083    0.12182964551214
C         3.83191811481565    5.55675532730764    0.57647002038656
H         3.01094409027001    5.37685032072314    1.26506458805961
H         3.40800370346751    5.62220191574903   -0.42232983325885
H         4.24917917818683    6.52992841076340    0.81749393757533
C         6.51368848765980    4.56991615602961   -0.58671770476661
H         6.10104203923457    4.87827775050523   -1.54408341530960
H         7.14471818903645    3.70440979891114   -0.76610605001678
H         7.15429348023389    5.37040083497067   -0.23238054200737
C         3.30324731056526    1.86533205450178    3.74036000528700
H         2.62089563969959    2.31273824692931    3.02551246674473
H         2.69947476814303    1.34014412400013    4.47302294035996
H         3.88851534195993    1.12286378176216    3.20838283917178
C         3.13609403242551    4.36327235485375    5.40358081148862
H         2.49853741378000    4.84510809431116    4.66668054605179
H         3.61974421117997    5.13822967799978    5.98793281840933
H         2.48252270606819    3.80530134576215    6.07168164589186
C         5.26508503799733    2.25249570542816    6.02343201067239
H         5.63871424716230    1.28217156915802    5.71178296352338
H         4.58797472853095    2.08384742346605    6.85742838501926
H         6.10711891787454    2.83318142489064    6.38502406331623
C         7.14004598379910    0.22694881002297    3.18030244197905
H         6.44570035940077    0.08712893677074    4.00064340923878
H         8.00375537987080   -0.40202649337571    3.37097291529979
H         6.65859285278836   -0.15036604237743    2.28488371011170
C         8.65046831948808    2.56879060083547    4.50679118166793
H         9.72785184446134    2.59218650807105    4.35963059055956
H         8.45143870900892    1.89591724712202    5.33728851615111
H         8.32775173679344    3.58039154831405    4.81470913447994
C         8.86455936441050    1.95359790049012    1.44385635526044
H         9.72168842908616    1.31859195740209    1.65301010568603
H         9.23903426893703    2.92393169846977    1.13471698710126
H         8.35079976741188    1.52044694102180    0.59020152810067
C         4.89853355530195    6.97334813492793    4.07940117085786
H         5.41433888954668    6.34412699814985    4.81532489087972
H         5.30517136634139    6.73852778457397    3.09753803246402
H         3.84879614781732    6.69391357344742    4.06842073030608
C         4.19168026146039    9.81911699015713    3.21204390544576
H         3.13044292582696    9.60308517006003    3.28646443778925
H         4.49602315614156    9.61039477323310    2.19168825646889
H         4.31425314834216   10.88437124043525    3.37579607523586
C         4.29199696244884    9.12200641409057    6.16201875574315
H         4.70895639403630    8.54294851614462    6.98192396258936
H         3.23854173856863    8.86346334058428    6.08715552791084
H         4.34384614415241   10.16890107386657    6.44567539802664
C         6.95338067888246   12.26890575787292    5.24256577209061
H         5.91095076638385   11.96735222890626    5.26054121508762
H         7.18869788427310   12.55227306964439    4.22174391283988
H         7.04480798966005   13.16045298715408    5.85478428840384
C         7.64541089960118   10.59337874846112    7.70142085708425
H         8.27654504638259    9.84693309581474    8.17403861025031
H         6.61695546514472   10.26149410962567    7.80349803803767
H         7.74728292044022   11.51128467052400    8.27489321843047
C         9.84832040964232   11.67314519263220    5.89754107983494
H        10.54433649637941   11.10834668390705    6.50875846171646
H         9.79484185055897   12.67791237674545    6.30885030154487
H        10.27136308136432   11.75565975533513    4.90095564950201
C         7.36545728333470    7.88834126789207    1.14462975855756
H         6.33467507614495    8.10011265438483    0.87412335792597
H         7.35965538964083    7.00204320721209    1.78474286329754
H         7.88879216471100    7.63459318482411    0.22598234441731
C         7.48764699235407   10.97922294272077    1.28475195714820
H         7.59883102897832   10.96216568457250    0.20571573064410
H         8.02493678884147   11.84759110403351    1.65048295032837
H         6.43689921408517   11.13151464014515    1.50359580688338
C        10.03257002130023    9.34541740730845    1.61060939661522
H        10.50959746580941    8.42033338905544    1.91854296896921
H        10.56620949302508   10.16177256389452    2.08924340061817
H        10.17961934981874    9.45065372192444    0.53778999872310
C         6.85176685752383    5.47570165792240    7.43264768730326
C         5.51884445581747    5.47514359169518    8.20411275410557
H         5.68836769372929    5.69113803964705    9.25592362438985
H         5.04325171376148    4.50270842262056    8.11058124767133
H         4.85078967137104    6.22717011857233    7.78908695988042
C         7.49180190768144    6.87906475704065    7.51839769799580
H         7.67575408818534    7.15541806219135    8.55588710924896
H         6.82430721583747    7.61639330991914    7.06446040009301
H         8.44055554647189    6.86917880321386    6.96802194463661
C         7.81832410771864    4.45328124472350    8.06857179323242
H         7.34632137189588    3.47413967076409    8.12610603758994
H         8.09652924737245    4.76305580357367    9.07345990822220
H         8.71409001295040    4.38357284225130    7.44833856728578

