111
CSD_code = RIJPIM | q = 0 | S = 0 | Stoichiometry = C26H72O4Si8Ti | MND = 4
Ti        2.21406993754687   12.87656277926972    2.62670266342723
Si        3.19962737933618   15.31127568186643    4.48050280447450
Si        3.93013741019038   14.15043434798820    6.42263114246025
Si        0.94632567088947   16.00947399725886    4.71396943108101
Si        4.78673097901181   16.92710294561483    3.80209356882932
Si        1.00461689220711   13.54300005229152   -0.34248083477824
Si        2.31576570739818   15.46710661325776   -0.75805229579718
Si       -1.31649238402374   13.75542451744278   -0.73296389399801
Si        1.91198459016475   11.58251636476736   -1.32573584859365
O         3.14006340187033   14.21445085356329    3.29464879194149
O         1.26559653353418   13.35829492062622    1.23700564277224
O         3.27414551585630   11.62182848631628    2.05787447044849
O         1.14915330087382   12.35456584745084    3.90431322475581
C         3.85279284590045   15.25266996933660    7.98960996191913
H         4.46492913087926   16.14047907264035    7.87703896392473
H         4.21235370415455   14.71975734327536    8.86407364156395
H         2.84160147758030   15.58294398916756    8.20249816257876
C         5.77270492077962   13.58781716854477    6.31750552865725
H         5.99166512537789   13.10200175030759    5.37140811460058
H         6.04246674305166   12.89765883454854    7.11324690213157
H         6.43298174002912   14.44654656145504    6.39927730127197
C         2.86973715607864   12.59130463927207    6.81969974127243
H         2.17784950821553   12.78173989003870    7.63586923289886
H         3.46523383474660   11.72356150394175    7.09356446988261
H         2.27797157785757   12.32778869604878    5.94313099528007
C         0.73965114610404   17.90352703697364    4.96184027607927
H         1.30801905982353   18.23966779821119    5.82246776029530
H        -0.29792668023851   18.16941136276900    5.13585708760372
H         1.08260266811312   18.47191524946217    4.10378254370307
C         0.12091988250325   15.20260860227625    6.25259458787140
H         0.22643997259515   14.12308616846412    6.21598042827099
H        -0.93981313594805   15.43288876380007    6.31895546701637
H         0.58183904127676   15.54630901235845    7.17369071065930
C        -0.14161217625861   15.52480447207342    3.21048867296278
H        -0.18128081191756   16.30764735153905    2.45847015085833
H        -1.16566046243408   15.29386098617565    3.49386235232950
H         0.28807653242887   14.63428314823999    2.74081308669813
C         5.35600660079191   17.88327472904729    5.36179279824305
H         4.50811267567006   18.30561137125953    5.89123081723568
H         6.01870992065643   18.70324171015752    5.10517304472166
H         5.88740993187930   17.24203293062642    6.05712586184910
C         4.14537671179590   18.28253195744698    2.59924543959275
H         3.66345916482966   17.85428390005691    1.72715371693780
H         4.94751880433201   18.92788140016383    2.25007269172350
H         3.41640642621171   18.91583146457916    3.09649238854369
C         6.39302902136070   16.20257337846316    3.02749705833665
H         6.89736644437784   15.54974048136847    3.73453843855515
H         7.09968430984074   16.97700755106207    2.73872008750606
H         6.17376277834808   15.61192035705124    2.14346778848277
C         1.53919807179528   17.10977439577235   -0.12030549930937
H         0.56718203027136   17.28219417940331   -0.57440770994534
H         2.15701446853863   17.97512360240243   -0.34854008129244
H         1.39783484598362   17.07673644248750    0.95678718813478
C         2.74037837066681   15.76671349641983   -2.60434444555212
H         3.21109128754506   14.90130249734864   -3.05878890272360
H         3.41455434565958   16.60810701064377   -2.72658021612684
H         1.84436010732408   15.98403907452239   -3.17534117967947
C         3.96313462525967   15.22672960328460    0.19519303589425
H         3.72732845610366   14.82253272597180    1.18472381121112
H         4.53598103130059   16.14019097398859    0.32990296836915
H         4.60612062255756   14.51076888702904   -0.30986305678535
C        -2.37052550183060   14.87753277526175    0.41892543963550
H        -2.39045741894978   14.49155844430725    1.43357327284525
H        -3.40046911046232   14.95778260016678    0.07921953474107
H        -1.96315986115155   15.88318318707099    0.46347632985733
C        -2.24723034256716   12.07085807405611   -0.78210875171584
H        -1.74078732044783   11.37053260523526   -1.44000729776674
H        -3.26449168575989   12.18067049062573   -1.14850717963142
H        -2.30203466478162   11.61095462422002    0.20017492169436
C        -1.48967273930818   14.49211007194408   -2.49325417374688
H        -1.06267742727440   15.48802006587930   -2.55426743892865
H        -2.52796588890110   14.56325255643777   -2.80081963126310
H        -0.97604035998969   13.87511449916481   -3.22317664473397
C         3.82080552392978   11.72279571314384   -1.49788621233167
H         4.10348849998459   12.49442999881020   -2.20883216276834
H         4.28718456201215   10.79552265639987   -1.82279933766344
H         4.23957528901151   11.99187349974524   -0.53191989185925
C         1.25832399342142   11.24740413129975   -3.09732986250048
H         0.18661683515406   11.08240658150096   -3.11154843207967
H         1.72810244193387   10.37414947536570   -3.53744783649680
H         1.46442461950055   12.08962786620599   -3.74900577324349
C         1.57760011047852   10.00062568897743   -0.28862936552505
H         1.93365875439106   10.18392449521532    0.72446917713927
H         2.09006456978915    9.11987305863381   -0.66939618247280
H         0.51747457009729    9.76520756519595   -0.23605317090239
C         4.52695690051674   11.19135541249758    2.50098425955855
C         5.56525089822901   12.30480509208354    2.26294496474714
H         5.68054130801405   12.48705057922442    1.19542274212166
H         6.53323929487005   12.02730293339216    2.67498943289290
H         5.21152492678143   13.22151053546676    2.74146102696038
C         4.93584642757362    9.91622107256312    1.74132518033293
H         4.19258785311200    9.13730487939097    1.89986849530673
H         5.90089510537597    9.56239672949367    2.09512751206076
H         4.99723734803995   10.11752133509203    0.67558963469762
C         4.45644243029058   10.88875353893084    4.00987272088865
H         3.99292729077927   11.74371702829834    4.50713829071041
H         5.44992625116921   10.71828391042798    4.41943855538966
H         3.85107698871539   10.00102149172860    4.18677543154220
C         0.18407827874307   11.34623594596199    3.93402108032826
C         0.87891941112481    9.97100207280969    3.95714941885354
H         1.57833202201618    9.92005230119920    3.11936011335065
H         0.15050834407084    9.16771159613961    3.87077280559962
H         1.42908884458829    9.84990134596191    4.88952511000164
C        -0.70688373154753   11.44089924293349    2.68067969547064
H        -1.20249201858786   12.41151806566837    2.65816866558255
H        -1.46027206110384   10.65507196356646    2.68581690265869
H        -0.08143561807035   11.34824144754341    1.78943034858628
C        -0.69044948470295   11.50549098992030    5.19131789405344
H        -0.07238340211822   11.45353036925524    6.08499576517984
H        -1.43756550400620   10.71696843522980    5.23313863251591
H        -1.19109434416781   12.47066006166146    5.16895494118049

