128
CSD_code = RIJQIN | q = 0 | S = 0 | Stoichiometry = C33H81HfNO4Si8 | MND = 5
Hf       12.62897144725903   13.89974056721521    5.53211420841409
Si       12.66496688253916   14.95378206939277    8.87451071641827
Si       11.93366165696265   13.36986168650087   10.49011839388821
Si       14.97936543500085   15.40170252586580    9.28735821804136
Si       11.38753574391511   16.94923812392908    9.04731603441218
Si       14.17834402474335   11.62852417565742    3.72581301966960
Si       12.70876403699406   10.58796832277459    2.19163563196808
Si       16.34479524817070   11.82647447990230    2.79329094082597
Si       14.12032685840976   10.49998276735795    5.81645805355458
O        12.43745394162382   14.37572201139671    7.40371244804724
O        13.77350630698900   13.11924439400795    4.16558349355568
O        11.39147923486285   12.46297089922740    5.33795701844063
O        11.98584436062948   15.56362445827723    4.80427648963637
N        14.63621383185809   15.18820803497650    5.79128293647110
C        10.23254414798120   12.50184813884552   10.23505982340765
H         9.45069737847116   13.22911627784771   10.03371902742930
H         9.92920974373473   11.93732685994701   11.11371045493345
H        10.25877286398513   11.80802329596237    9.39919569577814
C        13.15031035422214   11.91795858411386   10.83907475507539
H        13.14147309169678   11.17847175245666   10.04386807131726
H        12.90099391421042   11.40259472928203   11.76317596382562
H        14.16973673575974   12.27988696419773   10.93740547077664
C        11.74316810687690   14.28636659660712   12.16139481018923
H        12.68153590719085   14.72510945275661   12.47992439891017
H        11.41681309442578   13.61369633656281   12.94859061209710
H        11.01709978627382   15.09047290871906   12.10036593338795
C        15.21686075511728   15.56028500304954   11.18399982110924
H        14.57150623780981   16.32887169830197   11.59602822174193
H        16.23886794841865   15.82857468397831   11.43444726234864
H        14.99098362907336   14.63387961833180   11.70131597477257
C        16.31012915494626   14.11105895052997    8.75571453776698
H        16.15904118756949   13.15849823256206    9.25522548478722
H        17.31526547870572   14.44615982250006    9.00245752501009
H        16.28096683572803   13.92880783458465    7.68549027803699
C        15.67551381006713   17.06958620464503    8.60492116195250
H        16.16115656982161   16.94482900466457    7.64139124519183
H        16.40972888531659   17.49468003776966    9.28391684246418
H        14.89063172924234   17.80920827727302    8.47841746105892
C        12.14111204392952   18.08728985759402   10.39356871329100
H        12.10024157238478   17.60539130434448   11.36473493631479
H        11.59553077245786   19.02234727141892   10.47472853153346
H        13.18016786621536   18.33124510974253   10.19815485622992
C        11.27171715081787   18.00830934777367    7.44193639269242
H        12.16354000824098   18.61297800517099    7.29556402677899
H        10.42157272842937   18.68620520487464    7.45235216183010
H        11.16303433579897   17.36380153371578    6.57297693896817
C         9.55943960404670   16.70945918154384    9.60406818392828
H         8.92665275329317   16.36150666544570    8.79373464374488
H         9.13427624330053   17.64015072738258    9.97164953923561
H         9.48622243984312   15.98381118303196   10.40887517625451
C        13.03835482753841   11.07897174437664    0.35739875560250
H        13.00576608349771   12.15311758008062    0.20193364430124
H        12.31377053475368   10.62973263128459   -0.31632888592487
H        14.02127594484173   10.74153457292378    0.04389058417594
C        13.09291588873000    8.70784143655369    2.24866047141051
H        14.15335874436279    8.51540261409123    2.12595106659609
H        12.57321385989895    8.17436822980430    1.45865226094989
H        12.79208830923086    8.26673085983203    3.19277526615490
C        10.81670797144207   10.74199986478812    2.48934332409927
H        10.32880314805969    9.77125212838834    2.51935596961657
H        10.31862998157558   11.33788249510327    1.73002151009235
H        10.64875520591509   11.22638265417759    3.44532328074698
C        17.87914975098664   12.09562883848167    3.93820997898411
H        17.98374829877135   13.11785412930445    4.29042288900272
H        18.79784312003400   11.84365606365292    3.41448692543446
H        17.82681671573508   11.45331798122091    4.81209835309135
C        16.76439432777190   10.19158685601441    1.89380274445390
H        16.80331202372719    9.36364045698413    2.59393806016396
H        17.72947372252482   10.24429032559465    1.40044900872470
H        16.02692501713737    9.94407222333672    1.13853904180576
C        16.46295314043847   13.22408628027723    1.47513238168132
H        15.84105864803401   12.98661545088233    0.61741610136128
H        17.47486784441069   13.38099801627447    1.10997696129906
H        16.10459297022867   14.16675968755477    1.87882604724809
C        13.92159782887877   11.88649867049898    7.13230657333941
H        14.54592456938886   11.75887389999246    8.01370822821479
H        12.88904692065908   11.94996267046266    7.47353772908568
H        14.19226581805323   12.84769163979624    6.67338626462089
C        15.72652711475862    9.58135400027984    6.34447790956906
H        15.99255187691029    8.83404196221878    5.60546649745296
H        15.59760749912507    9.06551841690075    7.29072299124900
H        16.57527107930427   10.24881082811109    6.45054181994529
C        12.71898103060970    9.22848469456353    6.14320119781693
H        11.77849976897767    9.56621853006672    5.72103822090168
H        12.56358177956077    9.05838908027291    7.20592966601684
H        12.95619793041088    8.26903234103786    5.69444641984760
C        10.34887509625358   12.12020552584774    6.19778527120538
H        10.69063069583260   12.14635571727779    7.24826504773962
H        10.04817999491131   11.08228790520924    5.97217324400679
C         9.08910471169543   13.01273011305889    6.08829187561464
C         9.43442890964737   14.41578818728348    6.58743563858880
H         9.64403260367593   14.39306905714849    7.65476005489524
H         8.60941488085812   15.10282338408901    6.40517268888725
H        10.32947254117540   14.78448754690716    6.07187241422794
C         8.62823715495358   13.07839632206487    4.63208800451114
H         9.43045395691222   13.48184235546835    4.01982906781947
H         7.75226987574740   13.71755147166144    4.53815185372259
H         8.37354589349626   12.08654498184940    4.26478253289855
C         7.97619582007445   12.41092263152858    6.95009560046699
H         7.70640936916014   11.41934383359540    6.59282116073825
H         7.09062887262038   13.04132643530745    6.90967554834865
H         8.29080335387468   12.32772479856710    7.98671366926432
C        11.31610182953987   16.12480672840512    3.72040596725882
H        11.46831301811954   17.21833119044071    3.76082805990220
H        10.22762352572426   15.94437589004004    3.80307685735381
C        11.79022277274326   15.62091378507425    2.33774082537015
C        13.31108328475313   15.75078434380088    2.24155451446141
H        13.62276476958849   16.77696241995313    2.42899247555357
H        13.65513827377849   15.45659442189830    1.25214155208871
H        13.77510854495030   15.09623363103925    2.98018918327851
C        11.12192005778710   16.45710274670904    1.24385406235678
H        10.03890166399410   16.41914748208927    1.33833776544525
H        11.39482304453532   16.07721320339544    0.26198403231559
H        11.43396565864528   17.49711609075563    1.30908471543077
C        11.39892488430258   14.15073488893464    2.19305486791041
H        11.70554646648370   13.60301921201579    3.09309065675599
H        11.88951113363368   13.70685558704348    1.33131324123595
H        10.32288197281001   14.05648091766893    2.05846652763297
C        15.72507864016993   14.93352015105908    5.06624697500486
H        16.06521570064312   13.90641671198765    5.06193402497788
C        16.40890309095176   15.90369967766015    4.35344849597997
H        17.28851490484608   15.64159028629394    3.78751489332625
C        15.93279002885111   17.20613637228428    4.37890777983366
H        16.43109183872079   17.98634842842215    3.82262500972092
C        14.81604150830344   17.48385702375649    5.14918914805822
H        14.42199683760626   18.48524068301924    5.21826251892242
C        14.20546251341553   16.44954175179882    5.84367448137150
H        13.36471713264172   16.63152507825912    6.49534589873331

