68
CSD_code = RIJQOQ | q = 0 | S = 0 | Stoichiometry = C25H36BrCrNO2P2 | MND = 6
Cr        0.45863628665057    9.52708900299806   12.65860645314006
Br        2.32249510533861    8.36485920256787   13.93531849031868
C         1.43945143849757   11.13272840771602   12.25672003105531
O         2.34184004023115   11.91248165215232   12.42929225369565
C         0.92809197477647    8.96095052341586   10.98399244803844
O         1.12824818190150    8.82044797724621    9.84920015869010
C         0.15165922273712   11.04793097862074   11.63680290622903
N        -0.42609013334914   11.78864995093302   10.70125557569408
C        -1.74004030238627   11.37132965425987   10.21120604461445
H        -2.03554411044887   10.52450068988838   10.84571387206195
C        -2.78375603052580   12.47651402381679   10.37880759366732
H        -2.79439619895223   12.83777167975348   11.40563668829826
H        -3.76957834872033   12.08314501759376   10.14342285112994
H        -2.58779248759781   13.31797241967345    9.71903708454283
C        -1.67215244970442   10.87103283371813    8.76797116512803
H        -0.90670917654739   10.10371420625665    8.67503093675727
H        -1.44133246956145   11.67630798136165    8.07506618131859
H        -2.62984520516435   10.44162731175181    8.48437607193049
C         0.23584111260113   12.91282848015158   10.02997090852801
H        -0.45772335966284   13.27003547173958    9.26269186107017
C         0.49491903075459   14.05428242564719   11.01350485568407
H        -0.42633487921470   14.34463846639237   11.51644471170941
H         0.88277972066440   14.91687680977020   10.47751630656384
H         1.22850173460683   13.75737459077999   11.75798887714841
C         1.52594948362975   12.46637797837954    9.34230556889261
H         1.34523745056556   11.59373211755986    8.71799714207345
H         2.28937335937771   12.21649194736229   10.07346829429198
H         1.90399256080029   13.27073656987260    8.71591523130613
P        -0.55599773710258    7.43102951860178   13.26936069077821
C         0.13453202892728    6.00574807759796   12.34432667032068
H         0.14149963158477    6.22426950437326   11.27672411855111
H        -0.45634678412708    5.10819162650665   12.53427279886771
H         1.16184833274348    5.85610736986676   12.68140296896935
C        -0.62176915755285    6.68055926650708   14.94089590127451
H         0.40780182419441    6.56150574054135   15.28319111970769
H        -1.10555329128394    5.70430791901640   14.89432412801872
H        -1.15870976795503    7.33202846098744   15.63049947043282
C        -2.29494051863309    7.38587705960345   12.71016299289170
C        -2.51734580247901    7.79532907172297   11.39612546805995
H        -1.66697783373363    8.05552315241652   10.77484300620332
C        -3.79898414125082    7.86201819530930   10.88615711936356
H        -3.95971511953049    8.17362847625596    9.86417107786424
C        -4.87861245879257    7.53009193364919   11.69003204610837
H        -5.88279002563987    7.58337911272973   11.29611564465617
C        -4.66685015970232    7.13249398990293   12.99868104226793
H        -5.50668505992857    6.87552267652161   13.62758683279579
C        -3.38278128314583    7.06380610750564   13.51132631420105
H        -3.23748616147065    6.76193975585290   14.53751569449161
P        -0.24761969019182   10.46066334007381   14.70553252476568
C         0.62695614231855   10.16322581864810   16.28240289558468
H         0.62762577833197    9.10167272847167   16.52684088299295
H         0.19127169302168   10.75028041149096   17.09183770210557
H         1.66517722048816   10.46134531157905   16.12492245781188
C        -0.25105316504199   12.29866226783701   14.71735836868140
H        -0.85010364867051   12.67478468132323   13.88805708198413
H         0.77728433976154   12.63981290151819   14.59081074250847
H        -0.65087162219711   12.67618856805062   15.65985637141154
C        -2.00714513876735   10.16069807027048   15.10150541115434
C        -2.90761751734953   10.41520624489239   14.06965044395686
H        -2.52933201298892   10.78972049615737   13.12424131395492
C        -4.25939876245126   10.19425655573965   14.23979927739695
H        -4.94843983550495   10.40290151472343   13.43448606462965
C        -4.72657286029067    9.69279392734612   15.44464485758566
H        -5.78235644898335    9.51332844035058   15.58230148939213
C        -3.83737942712205    9.41737232587940   16.46897491977505
H        -4.19996222890896    9.02002025326045   17.40616752974946
C        -2.48219414163994    9.64990521449132   16.30251616688973
H        -1.80042674026222    9.43397554096691   17.11251782818681

