139
CSD_code = RIJQOT | q = 0 | S = 0 | Stoichiometry = C38H86HfN2O4Si8 | MND = 6
Hf        7.00159294950964   12.16758900912864   22.96782745723545
Si       10.20808632563353   13.44211358904080   23.41889896825790
Si       11.01592410744687   13.25683815606325   21.20743328689868
Si       11.53615125073601   12.15761741814298   24.91552519922196
Si       10.34315209589561   15.74062267119447   24.07873247628538
Si        3.67026563067485   11.59801078766112   21.81504881304739
Si        2.45008394936608   13.66826732207202   21.73170235657838
Si        2.71353859978365   10.20825642391867   23.46620170863957
Si        3.50219306747594   10.62195132745930   19.65255083005272
O         8.68989338893141   12.98603699115433   23.58113392800601
O         5.17053656876435   11.91947627217773   22.24327365953528
O         6.68024869931529   11.06222947679664   24.50416603771172
O         7.97301022376310   11.47543788929540   21.46102854839912
N         6.78068406811682   14.12739026009162   21.66728241151554
N         6.11683985370035   13.72362203905328   24.58446491114963
C         9.82432825643911   13.75138826921240   19.78469399649411
H         8.93051801732334   13.13937686800328   19.85252424498985
H        10.25806067333128   13.60545717088525   18.79826579551221
H         9.51894968664234   14.79248360422563   19.85578631153452
C        11.69165336681351   11.52807572122929   20.71512334019049
H        12.36352824198774   11.13618024377315   21.47374278774779
H        12.24037340932393   11.55343332526807   19.77635699838531
H        10.87524842915109   10.82381747010354   20.60168992675171
C        12.53654123122262   14.41820921115505   21.04156160349924
H        12.28022345590710   15.45652066752636   21.22071006931248
H        12.98047915515788   14.35834792208555   20.05290390944806
H        13.30580685360050   14.14795999257413   21.75706540013990
C        13.38982724127885   12.58717706380599   24.68681226259744
H        13.73587954095037   12.31004653483744   23.69629040815656
H        14.01142863349776   12.06275837834755   25.40569191704373
H        13.57726688896558   13.64703915647457   24.80930020717041
C        11.51953256064881   10.23474917104794   24.81828564319105
H        10.54452370372048    9.83026653050542   25.06666418345675
H        12.24203195870969    9.78882119996133   25.49860260483120
H        11.76657030719831    9.89603783777995   23.81642383116469
C        11.12787650176354   12.56645158278746   26.75684722373635
H        11.32952732212776   13.61090917230733   26.97603869907260
H        11.70855261393498   11.96964113355762   27.45534419682017
H        10.07705355091934   12.38967086207553   26.97104891695106
C        10.12958774169133   17.00912802324751   22.63321526428738
H        11.06298758591424   17.52825862279377   22.43858555821899
H         9.38209311955886   17.76762523291598   22.84966165346616
H         9.84094683086031   16.51421702112288   21.71091640181112
C        12.08021307187229   16.14759699795675   24.77972615428693
H        12.29813580511806   15.59126083947492   25.68528606898953
H        12.17695028021340   17.20319729137598   25.01618536918250
H        12.85138696570431   15.90705632043995   24.05542758802993
C         9.15683711805494   16.41722436692168   25.45170387734015
H         8.10913805321224   16.33903245003797   25.17094928537653
H         9.35524829523995   17.46273771857306   25.67683015298201
H         9.28387790335450   15.86160302636337   26.37627815096743
C         3.44648352366533   15.26455169565262   21.29986571019442
H         4.31227034728971   15.37627608529206   21.94769720016537
H         2.84635614195643   16.16615195646941   21.39769046258694
H         3.81053236370334   15.22841972562154   20.27735895330421
C         1.55343965767439   14.14671784559746   23.38100995577522
H         0.50260861251694   14.35701726565942   23.20429516249372
H         1.98413375479193   15.03122598851824   23.84333688210810
H         1.59763879704391   13.34099740955709   24.10747821591845
C         1.02669394133284   13.66883860865323   20.44749731065407
H         1.36965730743503   13.42783087669960   19.44694462998743
H         0.54082875802107   14.63935939453186   20.39959902031213
H         0.26643614068999   12.94278490380518   20.71685891874523
C         3.20835576981662   10.77865072365575   25.23093379807047
H         4.25925026150425   11.05681939820586   25.21144237843746
H         3.07828516889906   10.00890116349202   25.98727072178415
H         2.64451278810131   11.64957149295457   25.55321870790783
C         0.79869872788015   10.24746565476492   23.37185445705666
H         0.40559332504598   11.25749840582814   23.41456202621039
H         0.34704188488673    9.68554114093160   24.18322187393294
H         0.45243004428620    9.80772158160970   22.44308469420418
C         3.17208729861893    8.34465772255896   23.36187121757679
H         2.95103413750683    7.94422529566497   22.37618109426135
H         2.61802919926491    7.74884227012427   24.08346825628833
H         4.22926239880308    8.18834779865471   23.54987595562640
C         3.98422771683976   11.86418720104599   18.25794872354618
H         3.63716144401340   12.86655104254933   18.49250719862686
H         3.55846227026961   11.58760908698680   17.29714890185239
H         5.06259921944929   11.91416667587944   18.13085905480414
C         1.65985244560036   10.16461301908263   19.39249824162272
H         1.37380877319106    9.33926219227672   20.03707244734149
H         1.46444479128264    9.85717880907170   18.36966060653160
H         0.99738283762888   10.99130176723545   19.61573495872208
C         4.38171009694839    8.99151201537367   19.11771983417531
H         5.44817521846565    9.13063107592403   18.96773185865465
H         3.97148031189889    8.61466854659030   18.18316555918306
H         4.25114409462868    8.20893508395017   19.86036112852360
C         7.81054318696431   10.38822364156577   20.61332376665227
C         7.93548115354278    9.01858699682252   21.32729569026289
C         8.02682296855582    7.89070188098827   20.29660264728007
H         7.13824619607483    7.85945848360383   19.67189707214352
H         8.12210103342434    6.93171894994479   20.80143832773580
H         8.89290976274320    8.02554765169508   19.65186108357235
C         9.20269653883141    9.03603931669691   22.18576568573422
H        10.08798147635930    8.94684120307044   21.55951745427816
H         9.20557358080706    8.21037004654008   22.89464374636247
H         9.25470887177061    9.98612891808230   22.72382704624567
C         6.69717577637824    8.82654707903429   22.20539788005021
H         6.54152663833816    9.71698878999730   22.83017450987193
H         6.81126170616340    7.95268004157161   22.84514731177557
H         5.81583131920027    8.68673517289798   21.58330247615451
C         7.73303965635820   10.56491538215412   25.26844779276268
H         8.41140502844084   11.38506089202781   25.56697962978417
H         8.31725860221388    9.83866638232513   24.67850005430411
C         7.26104622461316    9.83453145963215   26.55115898824092
C         6.51837181138246   10.81756304724002   27.45611162011110
H         7.19372353422631   11.59658287976019   27.80419490365236
H         6.10456910004791   10.30462266151974   28.32193084845366
H         5.70697439555100   11.28406470326357   26.90468318257899
C         8.48281066829663    9.28398139575653   27.28951403059031
H         9.00891958316034    8.55543894361807   26.67670809656723
H         8.17286542966671    8.79383572769621   28.21002030496725
H         9.17708442017153   10.08248350199482   27.54025940858536
C         6.33397548946753    8.68460052078899   26.15566732171702
H         5.52905016865419    9.06466243345535   25.53419339106067
H         5.90977114511075    8.21148853526737   27.03881587746854
H         6.88298754299436    7.93348132257537   25.59174995324422
C         6.43544252089993   13.85473416557547   20.41089506192434
C         6.41684493331411   14.81016276294958   19.40677162203783
C         6.75873766252425   16.11543033846412   19.72093029664281
C         7.11160383434856   16.40529279323653   21.02950283320800
C         7.12005426442010   15.37948186864138   21.96149866308558
C         6.89526393326973   13.92396316194582   25.64859534048585
C         6.40217821110408   14.26754102873743   26.89666312565467
H         7.07925840144434   14.42156377940974   27.72201160861448
C         5.03357651078494   14.40958301138962   27.05946931055224
C         4.21958373230023   14.20374246390816   25.95767313522694
C         4.80356728560279   13.86167776474039   24.74782444650278
H         7.41150616789798   15.56432199693552   22.98721126432817
H         3.14877309912010   14.30516598704516   26.03125250536815
H         8.58603028023032   10.44537241866933   19.82807507014780
H         6.14626488897232   12.83115812127499   20.21464921401114
H         7.95680081367951   13.80590392924132   25.47663029085586
H         4.61332405721562   14.67209693929784   28.01892482515161
H         6.13631871645849   14.53491931020081   18.40243583982511
H         6.74844247603281   16.88842704077899   18.96696468750925
H         6.82625809183850   10.43063618541635   20.10928036858297
H         7.37889914316913   17.40764871705713   21.32242142800957
H         4.19696324436888   13.69238069901741   23.87035224720220

