136
CSD_code = RIJREK | q = 0 | S = 0 | Stoichiometry = C32H86NNbO4Si12 | MND = 5
Nb       16.89687231666379    5.10352380706583    7.85239464763995
Si       16.85223597798737    5.78403866384113    4.47211623892034
Si       16.92054765998664    8.17514043429993    4.56007228826038
Si       14.75420880578779    4.73214263503618    3.94840084645486
Si       18.49224069148930    4.90060314655521    2.98230755267055
Si       13.96867566809233    4.70115053181046    9.35836925540802
Si       14.92447044786515    4.54546785542376   11.52778358860374
Si       12.43490797849620    2.95405648663586    8.93592269513089
Si       13.45335687181812    6.93256369077294    8.69262240877565
Si       19.80708243079395    4.92414493363575    9.52138104679432
Si       20.71674609210173    5.18143531643590    7.33775634404312
Si       20.47679392305400    2.98235942652310   10.66822437155975
Si       19.94503870300363    6.97957145609892   10.70046562253352
O        17.07622406815959    5.20547264671661    5.97361437412218
O        15.28095176288124    4.33642991605277    8.46651142666416
O        18.28779827610786    4.61890183965621    9.05076505970169
O        16.68440706328499    6.73782852277397    8.26388023246839
N        17.09634286164644    2.65344555088612    7.37261531873528
C        18.38270160734766    8.83394476363570    3.49246869336672
H        19.35425135099003    8.61129323487957    3.92216262727644
H        18.31678579743460    9.91295103084291    3.39022595821185
H        18.36093350124083    8.41634886445465    2.49108205682013
C        17.07063945137313    9.07498545272602    6.24649893445783
H        16.37066665990870    9.90164642981106    6.33890211897900
H        18.07033825678947    9.47075773237703    6.40542895313224
H        16.86386819863459    8.37940255880397    7.05912449666724
C        15.37849473581429    8.88844895831858    3.66109644246062
H        15.27535942466737    8.46081784192090    2.66886379040486
H        15.47160586983276    9.96352501293721    3.53959857050220
H        14.45463218156009    8.70055131814935    4.19711297211397
C        13.50056012299757    5.82723593760157    2.99897738612598
H        13.19980533887741    6.70647312701714    3.55723121409296
H        12.60190841952356    5.26731771428964    2.75878096888862
H        13.92792968376420    6.16737835823601    2.06172780513583
C        13.84986407301590    4.06333064481288    5.50896545604199
H        14.50955362791374    4.13651799703901    6.37332478897634
H        13.55732653598334    3.02042659214044    5.41111884920839
H        12.95832199868287    4.63587386048414    5.74386624797773
C        14.90856637733548    3.16943082388362    2.82134923281423
H        15.36198721505204    3.41516174524486    1.86678900132173
H        13.92630324162054    2.75473351060246    2.60986537075351
H        15.50280958492469    2.37802600282508    3.26932888469918
C        20.29984436256401    5.56319058129945    2.97585536532621
H        20.31327199537493    6.63833400492369    2.82721903878869
H        20.86926376854420    5.12241061277254    2.16050924562529
H        20.83502122107935    5.35424098289218    3.89665945724426
C        17.81486765924505    5.41745288601791    1.26638421515579
H        16.78400415153881    5.11040434227768    1.12463061490492
H        18.39852795293027    4.98556050791274    0.46007786404041
H        17.84524590277963    6.49495115366076    1.14414230129734
C        18.67743043945528    2.98082116541900    2.89826815263441
H        18.85896473063234    2.54293161773307    3.87540663465980
H        19.50256958941602    2.68595905886643    2.25447436818624
H        17.77894686619602    2.52253686569870    2.49730733075064
C        16.55049170621546    5.55616569775865   11.62539750645759
H        16.88642273090012    5.76510525521149   10.60689566746754
H        17.35135637597432    5.02338363461093   12.13174706421113
H        16.41318277520709    6.51214358833621   12.12181833887381
C        15.37571601634593    2.72250799755015   11.98488398567666
H        14.48412649598948    2.13742549366121   12.19007737902745
H        16.01050281694339    2.66167272093852   12.86559527297895
H        15.89578354089655    2.23615159850540   11.16338615036596
C        13.77460297575851    5.15388968935211   12.93464157468738
H        13.48542489010698    6.19023893049010   12.80038237288538
H        14.25904160981209    5.07048948432585   13.90126643595528
H        12.86509807626008    4.56569729028892   12.97498144146751
C        10.98811478187254    3.27704715658639    7.71241757749520
H        10.50506786731608    4.22225297922517    7.94017866179890
H        10.23136751173491    2.50170302102241    7.79536622046350
H        11.30452381517166    3.31234574733775    6.67575026936737
C        11.54138947240015    2.57703726115995   10.58825257159207
H        12.23084564909143    2.30310256387682   11.37930640410950
H        10.82615208679171    1.76777928552276   10.48166872571560
H        10.99299198553655    3.45035864442519   10.92577482681308
C        13.26488123593475    1.30970841483419    8.37172457386967
H        13.85869258667248    1.47189428322907    7.47623965194264
H        12.54815110077701    0.52234882636643    8.15345642541482
H        13.93725162337696    0.94015439153516    9.14118017605655
C        14.34757433673255    8.21083430280819    9.81004640948534
H        14.10873330670425    8.07044840202600   10.86075100250111
H        14.09671093448859    9.23614846283346    9.54975858084599
H        15.41971798806020    8.08448426777396    9.68774796340431
C        11.57303799761348    7.28784755924358    8.87130740157872
H        10.97262060920921    6.68310608978436    8.20142239248339
H        11.35148325719623    8.32698884322241    8.65772488259389
H        11.23718009044436    7.08533561049487    9.88172824967948
C        13.90464858825154    7.31878168543753    6.86670803587598
H        14.84768458788376    6.81440229684222    6.64530329375863
H        14.05664379619571    8.38182652811640    6.70215508985622
H        13.15454993007553    6.97384540345908    6.16091269471239
C        19.94219349000462    6.78498755755328    6.61928184205814
H        18.88602909162172    6.80888002989248    6.90918028536160
H        19.98859978557272    6.84633996392475    5.53547930069935
H        20.40995386252918    7.67904848790165    7.02306173299589
C        20.10050338214215    3.71515105030455    6.25598259661453
H        20.16955900041746    2.77318300814330    6.79611529718798
H        20.63664044190451    3.59192691712478    5.31949415641338
H        19.05158190625199    3.88620422977167    6.01948949452588
C        22.61354001117062    5.27610686369745    7.10613290014590
H        23.04169190581998    6.06614994302762    7.71044294660537
H        22.88213214816485    5.47127325042130    6.07399859165528
H        23.09000184055154    4.34766778024156    7.39877827114915
C        22.22290951535695    3.32389076598322   11.36253544936900
H        22.91204345241777    3.59665197425506   10.56991585001967
H        22.63144965085095    2.45432570514857   11.86608804310817
H        22.21369826630953    4.13969167816163   12.07727752707319
C        20.66403138083968    1.41511469810864    9.56127790161520
H        19.75606352504566    1.20381892384097    9.00193161418074
H        20.90403326565531    0.52711485328717   10.14070447975504
H        21.46401766012801    1.55662712410035    8.83981230182423
C        19.37834526775806    2.44801625569875   12.15499801066646
H        19.36162404207258    3.22420363378282   12.91497407664205
H        19.73975583504673    1.53827716914007   12.62874483193268
H        18.35014799036049    2.27351988158876   11.85142776072798
C        21.70345244733009    7.66716011836845   10.33847154333806
H        22.46678649544199    6.95389916990764   10.63328955225269
H        21.88856635270561    8.58392346336692   10.88909314214327
H        21.85102993945147    7.88306728969216    9.28508084730128
C        19.91411166844491    6.80791217910361   12.61828409922980
H        18.93315871653910    6.55114221450557   13.00336713448795
H        20.21543040711663    7.73826955025440   13.09104386241386
H        20.60768460908483    6.04023922184833   12.94904017151366
C        18.67504604848763    8.31994532800518   10.18574881297114
H        19.14518278290808    9.15679888782531    9.67655260792365
H        18.11839272451902    8.71821705843666   11.02969344617327
H        17.95452351974662    7.88146567606534    9.49464771557011
C        17.16828997802191    1.90036601117747    8.46252254261155
H        17.47737175369504    2.41308653738735    9.36656765482297
C        16.88472876579240    0.54428241914865    8.45837867100976
H        16.95970162554947   -0.02735161804031    9.37015710025831
C        16.50749621850615   -0.05209049552034    7.26547417442582
H        16.27469740803681   -1.10557088870776    7.22411375813566
C        16.43317873205085    0.73527999327103    6.12742321122791
H        16.14410173058772    0.31682994359691    5.17629423046825
C        16.73578305914813    2.08327531942012    6.23078087253112
H        16.69319965468324    2.73687731482088    5.36826558761772

