161
CSD_code = RIKCAR | q = 0 | S = 0 | Stoichiometry = C65H87N2O4P2Y | MND = 6
Y         2.69329044719370    7.93269899955456    1.67235378254701
P         4.49849014747078   10.24887589433983    0.70993896526216
P         2.98263180716905    4.78914839447668    2.12827326402196
O         2.20334974853192    9.83441448307462    2.49204903438446
O         1.49470258543298    6.82560338387094    3.05719148771254
O         1.79688796241593    8.19644338366060   -0.08445962957842
O         4.27601610150145    7.98803425651077    3.76247216361905
N         4.71057393288619    8.66509500922742    0.82578194226889
N         3.66423611932198    5.92336593917659    1.23018999633113
C         4.96655846943950    7.94551574883827   -0.43506034189938
H         5.63919530906392    8.52707979152709   -1.08538774219166
H         4.01877601290449    7.80266744276215   -0.96984406433757
C         5.62500773981504    6.56665529311060   -0.20959313159424
C         5.12234108615613    5.87649824623821    1.07415134975807
H         5.47413975096305    4.83183288266333    1.04183319448317
H         5.60967570596826    6.37219705935712    1.92258108966261
C         7.14463337264445    6.71660828318332   -0.07057841585454
H         7.56775170448417    7.17461871158390   -0.96222932659170
H         7.60994507949618    5.74193210660222    0.06732409776910
H         7.39221881156715    7.33451657853944    0.78918399709985
C         5.32756236439036    5.69551252660337   -1.43169122887323
H         4.25824895887138    5.52594940169433   -1.51268087619614
H         5.82888323148573    4.73271877082516   -1.34851477651410
H         5.67057634690389    6.18693065336239   -2.34042845791821
C         4.21846763205161   11.02967014738018    2.30210872203305
C         2.96960389014879   10.78500311421984    2.92792275351903
C         2.61572560538049   11.67506241397452    3.99226320869181
C         3.56762519135338   12.55666118333568    4.45964572574161
H         3.30763160274025   13.19992230103245    5.28363379799463
C         4.85643437487405   12.68372415892041    3.92842001274971
C         5.14535422560737   11.94125327596852    2.80252018960084
H         6.08670466394589   12.05017590155360    2.28803495078532
C         1.19870128296569   11.66186095244232    4.55521747837845
C         0.21473725343947   11.86629660729051    3.39425172164514
H         0.31190171563521   11.05909663678751    2.67386676410129
H         0.41192795916253   12.81513712003645    2.89672943664149
H        -0.80872068112554   11.87885941186323    3.76479445067421
C         0.92218448676853   10.31438346142427    5.22914828467434
H         1.57198050624271   10.17711654922968    6.09227351752270
H         1.09071086650620    9.50949499152257    4.52036687760022
H        -0.11047431239575   10.27201154973741    5.56956509874779
C         0.94808940701506   12.77144746042657    5.58300981768522
H        -0.09155513647553   12.72983524821694    5.90278166933681
H         1.12778312208400   13.75504215244642    5.15427090727291
H         1.57072133288403   12.64563033782113    6.46654349477035
C         5.83891466724944   13.65956487269900    4.55841303105860
C         5.28789854186452   15.08615776641804    4.42633626848296
H         5.98759203314488   15.80290737604932    4.85193505201674
H         4.33740214791132   15.18940052290012    4.94243819009706
H         5.13459774078300   15.33204042272490    3.37769875104814
C         7.21422742439431   13.61291160183820    3.88575592045093
H         7.89206723984690   14.29501662860530    4.39551954830162
H         7.15256166581872   13.91771332061345    2.84348723316094
H         7.64022969812744   12.61298011940584    3.93521600345727
C         6.02381120412437   13.31388777027555    6.04309011714544
H         6.40878817954513   12.30185646211400    6.15111268819466
H         5.08448433031221   13.37865522501942    6.58467996928306
H         6.72926708873769   14.00254947948740    6.50395056723437
C         6.00583987150393   11.07540042682765    0.06560133751395
C         7.22880517994621   10.45866463269623    0.29300812617241
H         7.23662318738113    9.50136171468074    0.79451604144388
C         8.40736016868374   11.06014654084878   -0.11005405859483
H         9.35421321931178   10.56970564611697    0.06469377035781
C         8.36905030026961   12.29675940737108   -0.73274878780760
H         9.28627589087431   12.77256261219678   -1.04729477349459
C         7.15314107596609   12.92759724565147   -0.94520701666830
H         7.12532750868142   13.89751925052589   -1.42032347498775
C         5.97453554234541   12.32218876647694   -0.54805476548587
H         5.02681412629704   12.81640408533182   -0.70679244349108
C         3.25777684374871   10.86840677839706   -0.49442879302780
C         3.56682368868496   10.72784734744344   -1.84540650565477
H         4.48637361292193   10.23526171551014   -2.13562113875444
C         2.72158305068259   11.23461960406466   -2.81403932244274
H         2.97022891494545   11.12457122032427   -3.86000241418016
C         1.55573675011780   11.88444159327317   -2.44199773581157
H         0.89436882224834   12.28205758881018   -3.19830815693943
C         1.24121985790516   12.02136352735888   -1.10035322072674
H         0.33166707955699   12.52674012062756   -0.80839468346614
C         2.08831068785655   11.52015954601375   -0.12714557944128
H         1.84633162595174   11.64664242810362    0.91549182224594
C         1.19272775171576    4.77126905063283    2.04202996157177
C         0.64272689347624    5.90816836106061    2.67256394155592
C        -0.76132132705053    5.90504072681681    2.89354181937646
C        -1.49345464021161    4.86556036535903    2.35127002559421
H        -2.56240725874316    4.87795743149974    2.48379055767114
C        -0.94643325006646    3.78870497179730    1.64407153960292
C         0.42931495173578    3.72990096256357    1.53194764911519
H         0.92992152713599    2.90052324004211    1.05802846062328
C        -1.40182073427560    7.00262247906213    3.73115974826418
C        -1.22383713275384    8.35431470388515    3.02961616393000
H        -0.18465597620716    8.51047345568694    2.73520874986218
H        -1.52763211539070    9.16180644797208    3.69216113540176
H        -1.84342875718378    8.39173146477345    2.13611583599826
C        -2.90007821156068    6.78426674238615    3.96926693134935
H        -3.45749470455333    6.80604456305616    3.03549467592942
H        -3.27887024401732    7.58510701890802    4.60159652141407
H        -3.08626087097386    5.83918636598761    4.47554942168741
C        -0.70546738159568    7.01508870077458    5.09968612587057
H        -0.85743200908128    6.06269740758777    5.60646773069968
H        -1.11026762030083    7.80717235231448    5.72598650273116
H         0.36084582907718    7.17754960753851    4.97530234944752
C        -1.87156144726580    2.73385497173151    1.05618096161060
C        -2.82344671763812    3.41043250499220    0.05974662448039
H        -3.44270969445339    4.15664938080637    0.54939174461911
H        -3.47740693135850    2.67165558132002   -0.39965271892966
H        -2.25288331489905    3.90470067150719   -0.72349818614402
C        -2.67939786812899    2.07082010628927    2.18033594328255
H        -2.00832640910553    1.61070493675656    2.90280522177610
H        -3.32953721169645    1.29949129269522    1.77201062503025
H        -3.29825623168284    2.79464004104300    2.70312520168952
C        -1.10243820813626    1.63905656232683    0.31127725751939
H        -0.52050724487610    2.05971336207822   -0.50542982825387
H        -1.80531437833411    0.92169565472822   -0.10837750501246
H        -0.43468042752006    1.10287447011072    0.98209673141609
C         3.43961374506161    4.69579809171937    3.90992373737625
C         4.79373426859907    4.62232651475822    4.22796024035479
H         5.52871292684990    4.62613347378867    3.43501686941676
C         5.20101454349432    4.51447722805516    5.54600971324778
H         6.25416929321595    4.45626797949678    5.78322225000375
C         4.25759760069551    4.47089995180295    6.56032901523856
H         4.57380183621958    4.38486010736266    7.58973462849096
C         2.90865668074746    4.52913630934997    6.24895278076624
H         2.17137188313461    4.48509349440007    7.03729088592818
C         2.49919644105533    4.63695486064420    4.93124773479717
H         1.44756664549778    4.66833975888246    4.68998689607604
C         3.48431597638328    3.12439569952758    1.55396029598843
C         3.49094047345704    2.93815496578507    0.17563070232828
H         3.23981237298077    3.77735496659444   -0.45760909949362
C         3.80602214526068    1.70589450151732   -0.36502663172622
H         3.80961205048168    1.56856775000691   -1.43665025904287
C         4.11217440730291    0.64555838218972    0.47347411567684
H         4.35886096325883   -0.31990543998601    0.05662744384923
C         4.09559300121326    0.82228222035564    1.84716820671527
H         4.32621511936565   -0.00693590187846    2.50034760487224
C         3.78025478730623    2.05660394517038    2.38978280311433
H         3.76016435836428    2.18696204776054    3.46223804178097
C         0.89889935414883    7.60108165418873   -0.95730864821886
C         0.87359888266192    8.38755232744076   -2.28681453192214
H         0.51538827899276    9.39712775831701   -2.10736951666072
H         0.22277690658299    7.89703604295496   -3.00739316678925
H         1.87856181065346    8.45035606283478   -2.69793858932710
C        -0.52502081207462    7.60866869725719   -0.36562407779469
H        -0.56242453859281    6.96195563933155    0.50859767207901
H        -1.25261639818428    7.25993501619845   -1.09659173439204
H        -0.77523929362964    8.62570472487081   -0.06974355600618
C         1.29355817557911    6.14032726970551   -1.27053495459098
H         2.17681294041244    6.12286303173097   -1.90684801364474
H         0.48396241201483    5.62253544528065   -1.78176936388503
H         1.51528448284065    5.62288553664991   -0.33646187951275
C         3.79878225187847    7.98701088769302    5.10148874448415
H         4.08907790251771    7.04852291661123    5.59461482241340
H         2.71381299049077    8.05865299449464    5.06957708331686
C         4.49063070943355    9.17264203175473    5.77709825138119
H         3.92732591964021   10.08713237325054    5.60176767923535
H         4.59759491791535    9.01836919404028    6.84906817192918
C         5.84001620418778    9.24082764831673    5.04812751630846
H         6.03353822015793   10.24945543657658    4.68895724192173
H         6.66584267781966    8.93165022166230    5.68798471120163
C         5.66630765999441    8.26559690901777    3.87110953121024
H         5.99130433453996    8.68381493891235    2.91719153586821
H         6.20883710325632    7.32893679426590    4.07573235475716

