84
CSD_code = RIKCUJ | q = 0 | S = 0 | Stoichiometry = C30H48N2OSi2Zr | MND = 6
Zr        5.53359308404215   10.49292500162223    3.81466865364831
N         6.17107696334127    9.82574045543892    5.68626393230331
C         7.44018695054727    9.23982769143281    6.05536053183571
H         8.15066085587190    9.41776126523953    5.22327624411766
C         8.04541873574940    9.85691606621297    7.32568754306658
H         8.11963025227469   10.93987911669761    7.20393810528083
H         7.36764151917147    9.65783092213949    8.15798831047054
C         9.42182889864104    9.26543173818991    7.61653154946372
H        10.09903417483337    9.50613174484994    6.79340507919067
H         9.83176358213246    9.70953375737609    8.52634845468894
C         9.33597140514529    7.74987372743187    7.77316217221324
H         8.71978036336133    7.51176430760706    8.64297816597990
H        10.33233287988690    7.33729678251722    7.94553787689575
C         8.71639389642499    7.11640624190242    6.53059170769814
H         8.63120660540558    6.03607162478129    6.66782507375744
H         9.36639602508689    7.29439723781176    5.67017317682859
C         7.34086695324883    7.71941030388994    6.26435369638493
H         6.68475676791837    7.53307889200794    7.11491262712409
H         6.88001497250838    7.26503071751584    5.38294795432840
Si        4.75611994963621    9.89594995597679    6.63342874293533
C         4.68826761169773   11.25848529635917    7.98525506162480
H         5.37198924373172   11.03958438980683    8.79917297517691
H         3.69387537162617   11.33485095863353    8.41231604793219
H         4.95205676751902   12.23239698263931    7.58626263428374
C         4.04615845904534    8.30792933408835    7.44900016925182
H         4.62688795424975    8.02196302977571    8.31992526987653
H         4.04345538657953    7.46921722018768    6.75910267606989
H         3.02348851470277    8.46433615711302    7.77706197047773
O         3.67748874295730   10.21194797558394    5.40195953965618
Si        2.84803763214458   11.46192917895677    4.66594349995574
C         2.59407985726074   12.95916977379984    5.83624319766011
H         1.83558841222512   13.62777107581479    5.44224253398985
H         3.50860896140406   13.53426904198775    5.94392348821790
H         2.27128076945450   12.64717290970164    6.82335506140507
C         1.10677987420666   10.70152699328955    4.36904147152539
H         0.45330668749209   11.40902255802014    3.86877898829714
H         0.63262481027550   10.42878266789752    5.30656388266686
H         1.16072228324943    9.80559458778255    3.75681935454279
N         3.91415712196898   11.69631004939729    3.35973693620483
C         3.62757472291077   12.38326965574214    2.12389859376440
H         4.58660024656188   12.51763476810473    1.58387866527570
C         2.68147287241449   11.57431395111964    1.21879492079947
H         3.08090048380632   10.56484449222531    1.08601648017407
H         1.71830517938575   11.48629508153900    1.72351411835654
C         2.50033850037914   12.26806587030982   -0.12775263494293
H         3.46751093650619   12.34217719065786   -0.63135958070845
H         1.83460988238018   11.68179854656521   -0.76563730150612
C         1.92469045244233   13.66752213933167    0.07218221811867
H         1.82929633071647   14.17255354012307   -0.89162882033876
H         0.92609796656779   13.58577815322650    0.50734519976360
C         2.81358861474208   14.48615974045258    1.00481198558715
H         2.36747990769650   15.46888563290364    1.17225331461325
H         3.78943683448012   14.63731224295069    0.53772331219867
C         3.00158535227807   13.76716416953820    2.33689928133637
H         3.64161622640599   14.34750218872821    3.00221924077516
H         2.03708287891276   13.63217610466330    2.83033169744651
C         4.96877104060302    8.54568270758892    2.81417407167585
H         5.07276453815943    7.69058911136613    3.49130196708472
H         4.00109423419604    8.56469415731847    2.30216901643161
C         6.11876641772092    8.81185208358411    1.97781216145198
C         7.42321972847418    8.40987026703257    2.36470508725406
H         7.54078922163707    7.79073129577455    3.24916777743835
C         8.52929673326636    8.73849874461561    1.60826409067077
H         9.50901198380845    8.40425680483568    1.92093488719177
C         8.39924440827051    9.47592652315643    0.43882394121317
H         9.26784026253358    9.72475343668761   -0.15072937031335
C         7.13349188987925    9.87655110339396    0.03206196636560
H         7.02000634313579   10.43363451784746   -0.88785178029094
C         6.01635912285717    9.55960418154427    0.77746801316295
H         5.03432991083191    9.84818102931946    0.41633987607118
C         7.36143975594009   11.64057607424366    3.19629055122270
H         8.17885525744489   11.27271548974807    3.83650164560517
H         7.69809040574970   11.70140344848634    2.15449961150661
C         6.82295629747050   12.91100219275541    3.68168293103769
C         6.56206003823450   13.09437537424418    5.05998784542149
H         6.80397139823285   12.28652779282829    5.75341674799880
C         6.05515467160239   14.28796621967814    5.53438433384115
H         5.89073684691955   14.41943818718260    6.59620789796485
C         5.77644106466813   15.33614900400287    4.66660695221679
H         5.38083493217242   16.26699834935967    5.04379491255028
C         6.02272978415858   15.17570591454168    3.31192164851549
H         5.82311330656985   15.99136333742767    2.63082745636497
C         6.54249576849936   13.99112664760632    2.82670727965314
H         6.75961795137073   13.89415480410717    1.76955343295802

