82
CSD_code = RIKDAQ | q = 0 | S = 0 | Stoichiometry = C36H38N4OSi2Zr | MND = 7
Zr        2.88153597191173    2.78241532090550    4.01008552123196
N         3.52163564901184    3.80693698134560    6.01114045769051
C         3.88177339368405    3.28091222250853    7.17018260283952
H         3.72863591074639    2.21446800688380    7.28902097411722
C         4.44241678732758    4.01541539041462    8.21990909276541
H         4.71615137023276    3.51608470713786    9.13672592531361
C         4.63370083531351    5.36259675620218    8.05846111335924
H         5.06526058445951    5.96623358921185    8.84379412047512
C         4.26341977687556    5.97413771458198    6.84365485770041
C         4.42262753195527    7.34726793842585    6.60820103816876
H         4.84994602584693    7.96852532168161    7.38015260332789
C         4.02813230779903    7.87840025773221    5.40270885203767
H         4.14668311332673    8.93703005334062    5.22086726622399
C         3.47858330687508    7.08401010784721    4.40719389971481
H         3.18045183506188    7.52665271234360    3.47123793959655
C         3.31373765680530    5.70615362646649    4.56492651834773
N         2.80442167773324    4.88283416979874    3.63051381988043
C         3.71125400225310    5.13738915511901    5.82712060773792
Si        1.94144391898876    5.37996821747018    2.23197893842463
C         0.28877654496367    6.25337068846929    2.66009479682858
H         0.46130370703093    7.29727678578212    2.90094585913994
H        -0.19834845435719    5.80259368093200    3.52050566876349
H        -0.40767880909328    6.21808716277542    1.82881177088280
C         2.84939961351685    6.44326616830166    0.92660655522704
H         3.92650645735058    6.38976371596325    1.04583583023035
H         2.56540202241638    7.48767984487023    1.01135917479639
H         2.60209705138627    6.11966591160695   -0.07879288527772
O         1.51539052452360    3.93008529322835    1.59994127190919
N         2.93825526332098    0.51274353515730    4.57051012670189
C         3.01371024942411   -0.08163239506631    5.74752817337607
H         2.90123111648565    0.55219291709773    6.62044441506303
C         3.20151227891774   -1.45885427278591    5.91467136906449
H         3.26148610950110   -1.87540249388559    6.90849958887547
C         3.29487175358040   -2.25219228131909    4.80340945705953
H         3.43649275754689   -3.32013008834307    4.88617056789349
C         3.19452778872462   -1.66905086123132    3.52251704333061
C         3.25767500837266   -2.42205109709424    2.34131179308645
H         3.39095764294035   -3.49095399088105    2.40304422614583
C         3.14673705798772   -1.78671975121693    1.12624500547033
H         3.19484251995505   -2.36504520060947    0.21467414052891
C         2.97511937487592   -0.41284042662789    1.04072356829844
H         2.89272635240564    0.05900002818050    0.07502919828327
C         2.90329926427825    0.39852262821036    2.17680517047161
N         2.72909869169407    1.73201834159846    2.15541766110441
C         3.01874204877452   -0.25482113250652    3.45655756537879
Si        2.15630282690889    2.64207559446210    0.81335899818983
C         0.72582656633301    1.85215354512747   -0.17602919807588
H         1.08001970393418    1.45735681202219   -1.12282302286172
H        -0.05195716573328    2.57649283098834   -0.39074281461774
H         0.27608118010595    1.03291934768296    0.37445238709627
C         3.47945318010867    3.19084464191790   -0.46414368716256
H         2.99968924891020    3.51964279929082   -1.38126300171966
H         4.15004090529957    2.37713729876575   -0.72559157318024
H         4.08074521933405    4.01583705923088   -0.10012479777023
C         0.92706883115161    2.73799568869679    5.18999062672183
H         1.02073611891986    2.35329597336793    6.21508884086137
H         0.55854496236198    3.77473778557700    5.20025392355137
C         0.11500222293114    1.87042627118754    4.34523419564957
C        -0.57790639908947    2.37775744361701    3.22977028112473
H        -0.52461612479054    3.43711909394585    3.01465906941683
C        -1.33689210865242    1.55655492715240    2.42283094300818
H        -1.87745664409291    1.98031846136152    1.58852613894335
C        -1.42601061688393    0.19549380793628    2.67841610608017
H        -2.01261573462950   -0.44612624282696    2.03779065497190
C        -0.77411983923233   -0.32412249290451    3.78488448511366
H        -0.85864893198133   -1.37780126703706    4.01416562982617
C        -0.03929870771749    0.49718832118496    4.61564595126308
H         0.40847634181182    0.07767646034367    5.50925223492738
C         5.14213755629378    2.23372351586530    4.18276386975514
H         5.51499053043287    1.91299740281608    5.16322155220060
H         5.29929404821771    1.44866010470115    3.42929569541334
C         5.67106896084701    3.51600110134298    3.75902607013782
C         6.25171350634861    4.43750675350221    4.65046844046435
H         6.37702934433942    4.15955986634000    5.69070571480885
C         6.69397621633512    5.67229236005342    4.21762091745029
H         7.12474398790804    6.36396767626084    4.92799478041800
C         6.60405396922158    6.02495265715614    2.88164680294724
H         6.95740681801411    6.98809315720461    2.54572974096721
C         6.07781701811166    5.11322346868946    1.97429657078417
H         6.05566708625496    5.36267643423349    0.92110256543488
C         5.61043515784603    3.88903032089103    2.39997308655480
H         5.21625517178659    3.16823605982153    1.68820855970727

