113
CSD_code = RIKFIA | q = 0 | S = 0 | Stoichiometry = C44H62Cl2O3PTa | MND = 6
Ta        3.65171153574812    4.02725695592163    3.55835954654460
Cl        3.34593486080758    5.43251003948436    1.68152696970288
Cl        2.85633279523764    2.94645376098580    5.50743038000851
P         1.05711292437874    4.80550017028773    3.69259614489391
O         4.11740964583596    5.48717976480120    4.57367983893465
O         5.38688421650857    3.46644723806931    3.50374086892013
O         3.12137835493893    2.60666500924212    2.53412945439262
C         0.12577966682255    4.91061297173713    2.12214763380906
C         0.36647364339275    3.92258333912166    1.17213074808110
C        -0.32149000378361    3.91829418764516   -0.02679909396390
C        -1.25643158491689    4.90596548881083   -0.29003028325278
C        -1.49779905867511    5.89428633788646    0.64895280846901
C        -0.81200329151812    5.89898006863957    1.85114774187036
C         0.91566864294496    6.49582678367944    4.39856632024325
C        -0.18549324542796    3.93357981919776    4.73719120084740
C         4.88901139873824    6.37204011871014    5.22501397419038
C         4.89207875886435    7.72619871186013    4.83786495549290
C         5.70019633683750    8.62516919075065    5.51574794772352
C         6.49034922780474    8.22016784084501    6.57275126536805
C         6.49206165443821    6.89039221007307    6.94637175027715
C         5.71940043752141    5.94909484669073    6.28333488589997
C         6.63356811238947    3.00438870553257    3.45935921961484
C         7.68422026085128    3.87896157423890    3.12570263197368
C         8.97473242910487    3.37691155085621    3.07863996991406
C         9.23494952354835    2.05174166695104    3.37609178914782
C         8.19730207241651    1.20129456661925    3.71117600811472
C         6.88643573202915    1.64971484730276    3.74570998043426
C         3.07077441637995    1.49791714538939    1.78258494595169
C         2.16835425114112    0.47019987078067    2.11496256226191
C         2.14042323715651   -0.68059044226810    1.34400166289013
C         2.96651638425023   -0.82277243007790    0.24635851756801
C         3.83943486487440    0.19530853474565   -0.08665465097762
C         3.91937953340533    1.35632418919051    0.66697834366334
C         3.13483210828858    9.35572788296018    4.07956530080783
C         4.04902571385008    8.19620076296194    3.67637170042379
C         4.93621479661245    8.59970216798909    2.49686174161962
C         7.17694065522539    3.98623372290210    6.92537381861063
C         5.75098140650032    4.50313612515131    6.72223103337093
C         4.92573796170819    4.33557994180592    8.00148086726114
C         8.27577879063247    6.28820924603455    3.57633718414368
C         7.38009037320359    5.32290048072018    2.79856341015246
C         7.51246094290403    5.55823298794992    1.29073472944747
C         5.77328408992856   -0.56936033857442    3.30064026323226
C         5.74378594772642    0.72896620057193    4.10929069861528
C         5.76419522406733    0.43121369341070    5.61143348174024
C        -0.21080525549970    0.44918321498091    2.91865246380983
C         1.25860132327220    0.61993390892324    3.31108900150431
C         1.64846576965690   -0.37155604325904    4.40877927040427
C         6.27978186815509    1.94420055369391   -0.01164387473443
C         4.86744656583243    2.46332166612503    0.26662440947386
C         4.30669324882982    3.19951250145823   -0.95439371597927
H         1.10920135467902    3.16322749341383    1.37064404573847
H        -0.12346124777050    3.14808719451337   -0.75768013857949
H        -1.79210118480781    4.90902311955973   -1.22762518239940
H        -2.22265748109328    6.66858954975856    0.44366230859620
H        -1.00969465248883    6.67892465083017    2.57065103748326
H         1.22893235127241    7.22584076676182    3.65575580980055
H         1.58133835395733    6.55897657342089    5.25964018642427
H        -0.10425709649779    6.70123522288918    4.72024734257270
H        -1.12233080957448    4.48990145901847    4.73627538928637
H         0.20333236998380    3.84574911314173    5.74969539363782
H        -0.36064341852757    2.93605603128585    4.34309338586351
H         5.70844872905902    9.66107074802130    5.21226368940708
H         7.10524985505579    8.93435455998274    7.09980085619829
H         7.11212496205817    6.57668613884429    7.77192114112747
H         9.79045020041297    4.03169446776832    2.81249517265500
H        10.24850093846475    1.68061969541720    3.34570144255316
H         8.41151628595533    0.16926424852993    3.94340398966355
H         1.46021341990253   -1.47731945202196    1.60466046418933
H         2.92955465325627   -1.72241045991255   -0.34964226775563
H         4.47437623777358    0.08264549959503   -0.95201699480647
H         2.44318604859895    9.58397119715348    3.27076074865984
H         3.71389857486116   10.25193381135571    4.28807946309759
H         2.56239462177099    9.10708820982273    4.97090489742983
H         3.43231906019085    7.35689629816311    3.34570821221197
H         5.51477655737043    7.74494779121174    2.15840992702002
H         5.61889110658100    9.39944425521274    2.77664942775034
H         4.31878646855041    8.93896461526040    1.66835161021432
H         7.66695516381227    4.48470691724551    7.75796952068917
H         7.77170742610891    4.13621567948874    6.02684222095866
H         7.15538154295890    2.92008606010550    7.14015648116866
H         5.29024132637441    3.89492148628675    5.93924982337731
H         4.92968973136527    3.29547339444154    8.31922657541424
H         3.89436622049233    4.63157570541173    7.82426249603178
H         5.33338684302768    4.94952833971276    8.80222540647417
H         7.94708437795519    7.31150087987375    3.40975823725854
H         9.31223312043175    6.20523920158589    3.25846234151086
H         8.21922430627965    6.08866457793791    4.64363460961564
H         6.34085231955390    5.52531433254135    3.08545776429289
H         8.50149835696021    5.26626423019753    0.94297502193487
H         7.36118243422689    6.61036739188642    1.05854019793680
H         6.76670537313296    4.97948530773634    0.75116197534147
H         4.87583583021540   -1.14994202081116    3.50236175538759
H         6.63759716760346   -1.17550981667695    3.56069543373229
H         5.80155628097756   -0.35785768483431    2.23436239289000
H         4.80342902275091    1.24325075478391    3.87991340667296
H         4.97416350124382   -0.27208293120776    5.86589208634607
H         6.72013602926839    0.00185141263454    5.90483747233276
H         5.60052936381851    1.34389296016377    6.17882734551919
H        -0.85004909713852    0.59773650607468    3.78729388664042
H        -0.39698551389536   -0.55031516966627    2.53390556486075
H        -0.49188754429665    1.16886615087750    2.15153086545604
H         1.39732787618369    1.62877283116134    3.71477412586412
H         1.56844940397210   -1.39680321934203    4.05393182535448
H         0.99839528418800   -0.24719877664245    5.27160801426173
H         2.67099468450502   -0.18808591044610    4.72733045521522
H         6.29666861389305    1.28586405614124   -0.87658987217152
H         6.66682135155229    1.40298745264830    0.84897629838376
H         6.94857488175052    2.77829146938177   -0.21178610498661
H         4.93282138062025    3.18068201714159    1.09133580022367
H         3.34466740729334    3.64750115555671   -0.71534505269022
H         4.17598522894686    2.51303479166471   -1.78854493852501
H         4.98414478005708    3.99421435867032   -1.25900261365999

