69
CSD_code = RIKGEZ | q = 0 | S = 0 | Stoichiometry = C25H40NScSi2 | MND = 8
Sc        0.94922028028814    8.69499842780080    2.37897148844100
N         0.29865070238692    7.23952906588431    4.38331875945069
Si       -0.48594827214597    6.49929698554571   -0.22019526847965
Si        4.29674059161733    7.41909474407498    2.14968138716229
C        -0.56394402047561    8.02889147501008    0.88255562907375
H        -1.53458041124641    8.02022698233326    1.40952568779110
H        -0.61420468917916    8.89827564432008    0.20045176713450
C         1.14388242579049    6.47651255302386   -1.21998903088604
H         1.26679050585364    7.39820449348084   -1.78035620616398
H         1.16223668593523    5.65686242670263   -1.93156235762732
H         2.00572100861885    6.36975984629051   -0.56836952627370
C        -0.56131255392095    4.88697504694877    0.82003905521155
H         0.27485514192620    4.81843834735933    1.51023319040326
H        -0.52012259035626    4.01330331263255    0.17786859907572
H        -1.48001535046011    4.81899146756425    1.39526737532598
C        -1.93778739916926    6.38540267337997   -1.47192803274753
H        -2.89755477731162    6.36300636263640   -0.96395005266899
H        -1.87302608030710    5.49274248903030   -2.08716167628362
H        -1.94358005702802    7.24234830065553   -2.13860996472738
C         3.00485041260136    8.62735866659990    1.49959144709968
H         2.92056518209612    8.48697358006503    0.41090618305467
H         3.41840483018172    9.64183484434782    1.63241337214579
C         4.52714016688623    7.75584363081294    4.02802268455367
H         5.28842433918170    8.51209302161539    4.18833452381748
H         4.83075976272727    6.86901984832632    4.57645971945625
H         3.60538158920434    8.13238920863412    4.47026540261865
C         6.03674872988682    7.53275721000536    1.35280550513649
H         5.99245399508222    7.32410953434742    0.28802922209001
H         6.73137884947158    6.82516937478261    1.79665595756956
H         6.45849913052608    8.52623237891580    1.47290919364473
C         3.68790169813652    5.61501651429498    1.89668832118270
H         4.01117104541335    4.95612124455473    2.69672177414243
H         4.07557186378733    5.20706189672248    0.96920533521724
H         2.60264772591605    5.57098943839805    1.84198423320913
C        -2.12095330911726   10.37084275657073    3.06728397968951
H        -2.68901803698375    9.83937615145474    3.82248590211383
C        -2.77402022344408   10.94075648474104    2.00041360923484
H        -3.84527747054494   10.82802983589906    1.90981553285562
C        -2.08602004231827   11.67917967668076    1.03071553447174
H        -2.63587928294509   12.11072043166901    0.20767116078316
C        -0.72701112387665   11.88064568397699    1.13361455056506
H        -0.20417814267535   12.48340734052478    0.40379304487565
C         2.40280484267859   12.19947837356184    2.14771065248746
H         2.29821825532344   12.75642701166844    1.22670180065253
C         3.58238296098267   12.23738215074415    2.85958830966749
H         4.41691990842848   12.81487170496170    2.49017142280315
C         3.70750552784044   11.55733040158775    4.07718820511104
H         4.63533961698714   11.63443049283717    4.62629312098489
C         2.67332195490707   10.81424397376687    4.59511353164070
H         2.77689380191727   10.33947960560464    5.56339008078657
C         0.20542694058279   10.11386366322374    4.19723135010911
C        -0.72526748169467   10.52418526839928    3.18971852676461
C        -0.03057199005644   11.32355503696373    2.20634926189015
C         1.32970957903833   11.45567119745932    2.64027205711653
C         1.46106442765907   10.72556506398661    3.88091163992767
C        -0.12967615874842    9.44408667208475    5.50379725257864
H        -1.21430315799125    9.38715676165917    5.62095403417272
H         0.25384242383814   10.03708057426572    6.34163312309260
C         0.48937987429812    8.03966549985924    5.60758540024245
H         1.56756649304296    8.14109754155732    5.76697728771690
H         0.06732419308310    7.50830176117080    6.47688369556412
C         1.08145937213895    6.00698863590865    4.51417700916318
H         2.14411732089489    6.23609397921851    4.56867245880451
H         0.90954172417095    5.37152738369941    3.64721344215946
H         0.79255107592390    5.44795771548145    5.41545450427411
C        -1.11592765139901    6.85898132906301    4.26314185568177
H        -1.24550043250023    6.22204898064420    3.38854480435248
H        -1.73693616092539    7.74457389110735    4.14176815845723
H        -1.45035009042160    6.30936593089767    5.15498000105836

