56
CSD_code = RIKKEB | q = 0 | S = 0 | Stoichiometry = C22H30CrO2Si | MND = 10
Cr        4.51208295128646    6.80568246301811    2.43972502605791
Si        2.69417894061011    4.48583603587489    1.24419678219308
O         5.83879046633959    8.52201800732511    4.46580842239225
O         3.35072756604591    9.51587717897811    2.82713022991927
C         4.32508639292623    5.32627217702917    0.79122164262021
C         4.34720415850901    6.66261470725961    0.27989108597498
C         5.61655288238958    7.22682863473935    0.55620546413750
C         6.37729006319716    6.24842417299392    1.26707983716968
C         5.58849057062477    5.08309663986285    1.38783883093731
C         3.29663758359644    7.29822098505961   -0.57435654300615
H         3.36999067520147    6.93671959943526   -1.60204061020070
H         2.29935695062536    7.07231557546335   -0.20797223430894
H         3.41584726079934    8.37946474296342   -0.58792243248314
C         6.15332299057165    8.52447455472531    0.03400181759419
H         6.59828084385535    8.38050517411655   -0.95309505021879
H         5.36532334198490    9.27004208396358   -0.05303819832395
H         6.91960038717167    8.92008640111381    0.69783520575777
C         7.82486251481740    6.36000625129508    1.62669424307639
H         8.44887411571417    6.07649590055976    0.77607143752200
H         8.07934502793650    7.37951630708448    1.90875851210981
H         8.06781097033345    5.70473466118435    2.45984225294970
C         6.12727970066483    3.76406176680207    1.85036944762692
H         6.89621043978509    3.42339051122864    1.15315529805924
H         6.58943986384605    3.84006473815443    2.83441531557932
H         5.34888383109509    3.00827728429372    1.88388795877399
C         1.51269255234990    4.38737290942638   -0.25460271345171
H         0.96050414353269    5.30390371755204   -0.42483713622997
H         2.06342690333917    4.16654504192151   -1.16313688771083
H         0.79149859573912    3.58973137060431   -0.11132710344800
C         2.74608264807903    2.70517979884176    1.94475130195398
H         3.26113592790513    2.63144729442407    2.89624253967491
H         1.73027653651998    2.35526080473903    2.10335433281167
H         3.21801869492833    2.02009613999308    1.24698799585711
C         2.22918709397667    5.73482319391515    2.58983440148719
C         0.93702763740755    6.51187537507054    2.65319923321265
H         0.86450042992559    7.23682677185791    1.83484930409758
C         1.01550338020179    7.22611797902211    3.97832907678330
C         2.13447565226431    6.87125329597313    4.62870562337922
C         2.90641416053647    5.93640076368100    3.79613424734591
C        -0.28346690214549    5.58571025577783    2.59561791068569
H        -1.19812939733264    6.16266153923054    2.70850315496399
H        -0.32183182676004    5.05488715520150    1.64962676146744
H        -0.22794095398431    4.85847598297193    3.40234797226906
C        -0.05783795615366    8.16615252819294    4.40610432724199
H         0.31041386859202    8.86393426547554    5.15329904215587
H        -0.42098186507295    8.73428930396722    3.55149375801766
H        -0.90150623138974    7.62053523106645    4.83297609646752
C         2.60938668610944    7.31456477983320    5.97143074449372
H         1.88407041212379    7.96862425413718    6.44625286214807
H         2.77472429922224    6.45340285021415    6.61811670738992
H         3.55336245030725    7.85065323422704    5.87152804468747
C         4.20741886700881    5.45109844313666    4.08824966592813
H         4.42994141159448    4.44464862201208    3.75523948557813
H         4.56167084949173    5.62370369130122    5.09789620025430
C         3.77492806083714    8.44651608894951    2.67058618753405
C         5.32336338091889    7.83168076275901    3.68554312104423

