54
CSD_code = RIKKAX | q = 0 | S = 0 | Stoichiometry = C21H30CrOSi | MND = 11
Cr       12.71846419030653    1.36005172328132   10.90262620427551
Si       14.01402893526499    4.13825368353198   11.14441772051130
O        11.46416330035069   -1.33101256226214   10.66829466458239
C        12.23659846834502    3.47688971342059   11.07766702359013
C        11.60093072572655    2.78481935016717   12.16380136041563
C        10.64396506525506    1.89739583496833   11.63518446467785
C        10.66349090356834    2.02915791353201   10.19852909633298
C        11.63225902079813    2.99348572868984    9.86752361440784
C        11.70678457772113    3.08142250816550   13.62418964679288
H        10.78405228459353    3.54864939795224   13.97474713253421
H        11.84830702968851    2.16633243453688   14.19688994023403
H        12.52507541325911    3.75752348277156   13.83719382680171
C         9.60980270059557    1.15726209464745   12.42417677131759
H         8.73854755774953    1.79443792497834   12.59288065282642
H         9.27956871046901    0.26444379595424   11.89765875892924
H        10.00416220224324    0.85757446171357   13.39229710163078
C         9.66048472059624    1.43999946311246    9.25728964242047
H         8.78782307561730    2.09281454358780    9.18057768480336
H        10.08653997151610    1.32397752927510    8.26350887105309
H         9.32444203299462    0.46462964709358    9.60235198793020
C        11.78403585786341    3.55276899564266    8.49040261061719
H        10.85537617303623    4.04010494407241    8.18622625856568
H        12.57760495510919    4.28799715894479    8.44458452781260
H        11.99071553984234    2.76432609469131    7.76863779426630
C        14.54144094879146    5.39623698241468    9.80085305580950
H        14.47737135727030    5.05689848002130    8.77533484137219
H        13.92995870738601    6.28928057776920    9.88613154696614
H        15.57100080715099    5.69061935354001    9.97839980049755
C        14.54952489978823    5.14220117223397   12.68437935485720
H        14.14737001854930    6.14736962640985   12.60724366030100
H        14.24225529091574    4.74727973171603   13.64385714277692
H        15.63185093200959    5.22678216200626   12.69909132049402
C        14.65239110080773    2.35735509622613   10.99910432606289
C        14.59350574861006    1.41966045396070   12.08554555416188
C        14.50626238509107    0.11910254478378   11.55739445111254
C        14.51433263056952    0.22515800133600   10.11842023241794
C        14.60835919783059    1.59018935779829    9.78596968937843
C        14.82954699998638    1.69460622145180   13.53512618192802
H        15.77372573247040    1.24317109396547   13.84674596785115
H        14.88578127373354    2.75758569654593   13.73406897474062
H        14.04186571934795    1.26126551384207   14.14918231444983
C        14.64208499564763   -1.15079339185907   12.33711138635348
H        15.69678335587872   -1.41379417463118   12.44690473602181
H        14.21406655621350   -1.04018542414170   13.33066030417473
H        14.13808309799528   -1.97449168320204   11.83625650217043
C        14.67042952796582   -0.91738958838719    9.16450396483358
H        15.72894617200950   -1.15005082646753    9.02669914872329
H        14.17310697925353   -1.81025244755652    9.53708010745640
H        14.24770423916938   -0.66974199967323    8.19361098839514
C        14.86416180139126    2.06662748072377    8.39325214278010
H        15.82824625733857    1.69019248960825    8.04490719229107
H        14.10209435915196    1.69663305889875    7.70931408516514
H        14.88856296918227    3.14770322867341    8.33884855294404
C        11.95286252598373   -0.28232465047492   10.75974511618407

