85
CSD_code = RIKLAA | q = 0 | S = 0 | Stoichiometry = C39H39N6Y | MND = 6
C        -0.78271937434289    2.27226379630293   12.14480080087321
H        -1.43549479791547    2.98941248612076   11.67215734169874
C        -0.94788155636934    0.88428656724727   12.21538822332686
H        -1.76247200686903    0.32072306566793   11.80261128611621
C         0.13822893232083    0.39681046089549   12.91818321553009
H         0.35158991864968   -0.62510225445589   13.16907771469102
C         0.93037556498736    1.51272432305583   13.25037998998042
C         2.13009408017915    1.58315814869073   13.97486619685342
H         2.53697683633108    0.64858891129660   14.37006245956318
C         3.93533800024931    2.64150241820843   14.97185406150733
C         5.09809106651785    2.07515530800693   14.43738293768298
C         6.25791829751847    2.07950296481470   15.20212539369522
H         7.15908406440708    1.65423273726206   14.78460890463338
C         6.26867569077807    2.60158842008783   16.48081948880150
H         7.17742167875285    2.59217191992982   17.06362398375772
C         5.10481480568424    3.12343273226427   17.01713234746397
H         5.10240510040015    3.51245665824335   18.02496757675805
C         3.93195447457887    3.14988838887787   16.27908608432288
C         5.11857665277977    1.45558804929495   13.07130302043159
H         5.00301846835119    0.37384043143712   13.14912034756995
H         6.06845960498210    1.65244191517555   12.57934320223251
H         4.31626345108720    1.83629474007395   12.44344521184122
C         2.66770720905841    3.69594206546700   16.86899895002006
H         2.80903632748486    3.93734402705663   17.91994265613532
H         1.85679623324897    2.97252481145644   16.78200699584808
H         2.35787591800996    4.60095096803744   16.34234603036050
C        -0.98554271920830    6.39221284661151   11.86111248152491
H        -1.43972850426274    6.66077083631175   12.80160806477964
C        -1.43873934109177    6.70751615182231   10.57472874216925
H        -2.31969534151110    7.27025378107403   10.33220052141325
C        -0.53121643730268    6.15128050671684    9.69341043319934
H        -0.55294620240752    6.18662579488241    8.62058248991823
C         0.44736407875224    5.51245192349126   10.48025601156666
C         1.58370804537042    4.78653878618362   10.09035979452313
H         1.76762438735088    4.67525982283677    9.01869758308941
C         3.48418571138124    3.50617746605068   10.43906499314610
C         4.79747174808951    3.91249337828817   10.71642437284944
C         5.85762792257973    3.18953854456319   10.19530912792853
H         6.86801375264794    3.51632039450070   10.39460020038769
C         5.63244150575441    2.06071190343289    9.42707061216596
H         6.46421193708455    1.50493233832790    9.02109117427954
C         4.33747448288214    1.63831440944297    9.19631915904271
H         4.15907270062163    0.74275142203719    8.61880238785522
C         3.24799168219403    2.34682333321467    9.68736525576752
C         5.02735540867622    5.11134644760447   11.58293571511075
H         6.08865595089401    5.26554266532139   11.76103936676574
H         4.52635893157178    4.96897278483054   12.54743258769368
H         4.61999050930956    6.01243843440468   11.12412422018301
C         1.86103619151139    1.82899217080226    9.43646546125911
H         1.16866043384224    2.15452974114229   10.21058839769006
H         1.87078908287276    0.74101968758331    9.41416510443674
H         1.48364623056534    2.17681078088659    8.47450733156396
C        -0.80138641214793    4.76048830580067   15.59528097815144
H        -1.25529193337216    3.79866273571871   15.41545308555455
C        -1.21880950479720    5.74665831198537   16.49499421761865
H        -2.06822333193462    5.69202813038829   17.14845998056452
C        -0.32392933980478    6.79347925089902   16.37069471802155
H        -0.32799979629681    7.72534653158443   16.90401813467464
C         0.61065204015122    6.40446206196900   15.39283982254710
C         1.72489866630175    7.09595953042622   14.88673930784720
H         1.92864218691944    8.09029339126347   15.29553673967359
C         3.60236495497630    7.39857316544299   13.56193318553826
C         4.83695993511756    7.26487178186623   14.20652968247868
C         5.91046850006625    8.02792787218873   13.77223532406475
H         6.86549079317278    7.92317791413421   14.26630851611150
C         5.76795374186026    8.91917297684045   12.72510018755527
H         6.60990557089368    9.51014613242816   12.39730749852820
C         4.54079480092979    9.05562697234205   12.10260444369617
H         4.42541398887490    9.75697196084866   11.28881122848358
C         3.44534102810722    8.30778130239097   12.50994455079501
C         4.98629855054324    6.30110282162034   15.34386594685664
H         4.36881523814663    6.60383411256477   16.18957736003220
H         6.02088412338803    6.25009581262379   15.67356829140036
H         4.66688993903885    5.30191313415611   15.04377943698401
C         2.12171782651852    8.45310993444377   11.82385516033595
H         1.86347879583037    7.52797167011275   11.30548627522880
H         2.15259301043522    9.26181782835403   11.09770606936715
H         1.32704166859664    8.65726176160176   12.54059520462806
N         0.33797887775656    2.66197642200618   12.75736977054901
N         2.74310588184215    2.71053441793662   14.21202152683331
N         0.14320068111349    5.68204669740120   11.82100835989070
N         2.42153315857724    4.27728771763065   10.95267948523299
N         0.29462037119989    5.13680515092033   14.93187778646164
N         2.51079732295935    6.59393319513199   13.97632213108819
Y         1.52315187599855    4.52683058208784   13.16549958120204

