164
CSD_code = RIKVAK | q = 0 | S = 0 | Stoichiometry = C64H89N6P2Si2Y | MND = 6
Y         4.36285163667378    3.14695171754535    4.07305801534264
C         3.70693294293245    0.28078300121939    4.91407876464936
P         3.08544550228872    0.46273278326017    3.26470883824496
P         3.04558231589534    1.32155792035819    6.17244891023189
C         3.63886671991905   -0.99564110298970    2.31439704367880
C         2.75356669965044   -1.67266902843186    1.48194562551347
H         1.71666459828429   -1.37009815979724    1.43745373732035
C         3.18951455760677   -2.73529513171245    0.71050769123969
H         2.49051117973550   -3.25626804104560    0.07179443927154
C         4.51626471904739   -3.12992012723271    0.75539253468099
H         4.85387391679186   -3.96285359891925    0.15614518790768
C         5.40762476449899   -2.44698294753971    1.56554050968988
H         6.44582315227243   -2.74404850398381    1.59692358342876
C         4.97457715045596   -1.38074665947702    2.33331042650749
H         5.66803327301109   -0.85192565178382    2.96601102526914
C         1.29276666112707    0.17024624531571    3.34102885140168
C         0.40054090592082    1.05765572486799    2.76100696349509
H         0.79703091707762    1.92537825024738    2.25555316706854
C        -0.95987683216707    0.80922847158318    2.80934740691855
H        -1.65506717542318    1.50736858737427    2.36548238574139
C        -1.42858705317829   -0.34456389025921    3.41428773207572
H        -2.48966694290030   -0.54410775410199    3.44836083280480
C        -0.53653145096525   -1.25594936536518    3.95819980304744
H        -0.90365636439411   -2.16865054297623    4.40435283712126
C         0.82059338545650   -1.00041651770280    3.92542206287433
H         1.53042161540389   -1.70684801571459    4.33236105437588
C         4.00280787274001    0.87501072749323    7.66469670218313
C         5.29254353125921    1.39638385596743    7.69316806593815
H         5.63078285839025    2.00448352047969    6.86187279233383
C         6.12984509855890    1.14651299532651    8.76452252746147
H         7.13402244143479    1.54607690426299    8.76962801812351
C         5.68056700671325    0.38212019679576    9.82890564676760
H         6.33196545684478    0.18101630392823   10.66680348520444
C         4.39051524633470   -0.12041023119548    9.81763447318149
H         4.03193778071934   -0.70602443670903   10.65203906565549
C         3.55274549642343    0.12385701845266    8.74315277295148
H         2.54471389529375   -0.26388164474103    8.75744445012483
C         1.34687071536148    0.78122770467716    6.51794307628750
C         1.09270422712826   -0.54915724788689    6.83670425386185
H         1.90811032811368   -1.25917748630665    6.82698558910568
C        -0.19406265099818   -0.95171452976947    7.14130574091550
H        -0.38948519610111   -1.98049445271350    7.40822888048132
C        -1.23559372173842   -0.03811697682770    7.09721022978662
H        -2.24103101803491   -0.35616509883137    7.33124618128044
C        -0.98999663213962    1.27888683449735    6.74577895985636
H        -1.80498077270733    1.98658483373747    6.69798830783431
C         0.30060567212039    1.69014733357330    6.46557458029381
H         0.51868134616391    2.71539918390249    6.20516713092260
N         3.42142224609441    1.80490173669564    2.41525967791339
Si        3.70154273144272    1.90490374219754    0.70314714039813
C         4.54251890532966    3.61195238069623    0.45020644610420
H         4.66040858434241    4.15093820142811    1.39256718781295
H         3.96919164709502    4.23748303980121   -0.22545154959270
H         5.52806400091040    3.48953075128795    0.01175234922742
C         2.07930524248445    1.78109339040127   -0.31791121397959
H         1.56140606139040    0.84796591696797   -0.11566397672071
H         2.31049450295089    1.80496456946352   -1.37793127117885
H         1.38574401283805    2.59262610904164   -0.12088072906921
C         4.88877285267319    0.64600561258494   -0.12250489286465
H         4.40100609451202   -0.30131031154174   -0.32475573618743
H         5.76004506489107    0.43922151089707    0.49086332604731
H         5.23842325472993    1.04159358567647   -1.07186687421451
N         3.11590136918445    2.93425984263410    6.01030784565415
Si        3.05179127409484    4.00697786020380    7.38758673545249
C         4.81778130058166    4.72202136806773    7.61157420274702
H         5.32119279784002    4.75797709699168    6.64283731553902
H         5.42621054598806    4.12823358315317    8.28742547124926
H         4.77795850561287    5.73121427846447    8.00794943077837
C         2.45146526752045    3.22308034666624    9.02710387112551
H         1.72536026291753    2.43706401789600    8.84177797263120
H         1.97583904430732    3.96991134916733    9.65454003630517
H         3.26782942012194    2.78888186069415    9.59448805977342
C         1.88748573471544    5.49482759130747    7.09084172603797
H         2.11841685039431    6.01160684637006    6.16662726502836
H         2.02672699336132    6.20546664799076    7.89868851973189
H         0.83685273325456    5.22235706319251    7.08436462086158
C         5.23489422301924    0.34785713189270    4.91255823541035
N         5.77027159436213    1.41808781218762    4.27352080911144
N         5.96859785725110   -0.57416323588162    5.42085421090032
C         7.20657276228578    1.30806157087221    4.02228405958167
H         7.43384990974539    0.25305296591376    3.80298911121706
C         7.57822576884814    2.16760342901655    2.81313663001751
H         7.28800639897021    3.20613790353383    3.02225959377142
H         7.00379304969244    1.83181715449878    1.94393889640986
C         9.07350357972856    2.08389979140825    2.51544803891317
H         9.32297058454440    1.05943947603761    2.22807048694271
H         9.32188003210457    2.73529511780743    1.67313288868992
C         9.90091699176470    2.47382279909255    3.73714961497721
H         9.71663494821413    3.52072536865432    3.98622848338422
H        10.96500730882320    2.36950532780428    3.51067504318880
C         9.53530677438490    1.60105315853425    4.93353078598093
H        10.11830763031658    1.90572594068284    5.80614494130466
H         9.78477793964598    0.56103692382431    4.71227272783629
C         8.04545606751770    1.69656738286462    5.24598922101924
H         7.78546432898351    2.71504975578120    5.55595394542053
H         7.78785920164552    1.00983704312519    6.05325659288644
C         5.43031222285030   -1.69907844694461    6.13667079288945
H         4.54155356832034   -1.40703699716600    6.72228215742133
C         6.51341562449433   -2.18464866010267    7.10458024159866
H         7.39129278000512   -2.46831380498850    6.52138875481106
H         6.79877875065165   -1.35953324410893    7.75924169819248
C         6.02205259659809   -3.36880678966862    7.92742540339194
H         5.16991908325487   -3.05314604897091    8.53570861140878
H         6.81066745609809   -3.70380832833864    8.60581419179163
C         5.59879299526391   -4.51445490414803    7.01339755697154
H         6.46610628315404   -4.86482476800894    6.44905315371993
H         5.22462395913896   -5.35181643152744    7.60818883990140
C         4.52298666685290   -4.04276212873517    6.04058389003146
H         3.63391207248825   -3.74720197065179    6.60458284670146
H         4.23806656293289   -4.85943266853310    5.37188743414930
C         5.01588474201412   -2.85585057860996    5.21984855525172
H         5.87233299013373   -3.15215764423113    4.61084874731101
H         4.22723564108200   -2.51413156827436    4.54622734438476
C         4.17146237951575    5.92295270515137    3.52144799424481
N         5.34863177455724    5.40422816119446    3.85735267976666
N         3.17532054501721    5.05529772029568    3.49767919510077
C         3.95011703125351    7.39245897051823    3.19680177165078
H         4.89193505436269    7.86269216612969    2.91112239031059
H         3.28420809927064    7.47470243445194    2.33759645344228
C         3.36716478892897    8.14605001004837    4.36324841596620
C         2.33346102439878    9.05540553748990    4.17174327415081
H         1.92907443323760    9.20447116786442    3.17953269783776
C         1.81870232043404    9.77464326473556    5.23559811208960
H         1.01434483827002   10.47668111393309    5.06966631560356
C         2.33376421628898    9.59763643572465    6.50823211840215
H         1.93425650208079   10.16092370615336    7.33856384296486
C         3.36120715565623    8.69225898469582    6.70935073348023
H         3.76646681441811    8.54573009517453    7.70015316973980
C         3.87141042035119    7.96898075797117    5.64623405326629
H         4.65856087285971    7.24984327406357    5.81355636442607
C         1.82212287586688    5.44830644413782    3.14312317891833
H         1.59736742693061    6.46852669216902    3.48895599449448
C         1.61291389759899    5.36562593051400    1.62258429490515
H         2.30016288457810    6.03983044135408    1.10664705693451
H         1.85662980000008    4.34895410106513    1.30733412916806
C         0.17408844673515    5.70210469200594    1.24651929361434
H        -0.05707625925790    6.72267534511319    1.56325545840446
H         0.05400851643655    5.65442634985216    0.16129518073812
C        -0.78965305000774    4.73317919170345    1.92180881357307
H        -0.59862634290029    3.72299365466742    1.55463778715077
H        -1.82052120873026    4.99212451758544    1.66769616131559
C        -0.60166706276970    4.77236389723503    3.43504299683082
H        -1.25732420073243    4.03863638875988    3.91048586280541
H        -0.88443805538281    5.76217397069494    3.80418749584721
C         0.84544976238174    4.48894655071118    3.82685901652712
H         0.95699667841854    4.58475906219872    4.90475216930107
H         1.12756635787517    3.46764582309475    3.55803017889321
C         6.54808942893440    6.23082215940700    3.83271497950792
H         6.32293191494289    7.26575311959117    4.13292105244354
C         7.58935122393508    5.71076197479256    4.82587992083719
H         7.83436527881477    4.67750363637689    4.57661036901567
H         7.16962858064179    5.72460921330974    5.83468267789744
C         8.85190087566908    6.56891043577762    4.78777950868132
H         8.60757026434471    7.58456673314218    5.11012942191063
H         9.58885635826525    6.16720679930714    5.48713781153029
C         9.44360325006285    6.61842110310419    3.38216142421657
H        10.32448325130724    7.26418021303486    3.37382575262135
H         9.76100066575764    5.61755415350489    3.08188890727110
C         8.40870179026201    7.13394593628860    2.38800981995778
H         8.82965014267340    7.14019290290963    1.38005395293029
H         8.14075804620767    8.16257159305498    2.64389614246052
C         7.15994023143205    6.25920871367084    2.42125115169268
H         6.41983509870098    6.62893785180383    1.70742449596355
H         7.41488683427349    5.23918310869570    2.12495010520494

