131
CSD_code = RIKVEO | q = 0 | S = 0 | Stoichiometry = C52H68N5OP2Si2Y | MND = 6
Y         5.95430799716705    5.95375129495860   16.13705840488053
C         6.38886189626879    5.72119714473997   13.64521200789593
P         4.88635523564385    6.55328788203390   13.53836790635212
N         3.98997565248899    6.08151183479962   14.81546185670374
Si        2.26319834531026    6.17727900083712   14.91535432045732
P         7.81677598877094    6.61332218850877   13.98693588685854
N         8.14482671157499    6.46429699044463   15.58523405787410
Si        9.64833313822363    6.64831553839448   16.41750982613564
C         4.02737859081380    6.01084476750646   12.03001768838537
C         4.27107687662742    4.68844537081364   11.68007139324433
H         4.99166107279274    4.13489218829206   12.26909387834859
C         3.62074049399383    4.11146997850812   10.60730014439351
H         3.81300152006997    3.08131920503989   10.34184303301637
C         2.71838316110188    4.86109127264899    9.86861428402991
H         2.20769657126254    4.41802690771343    9.02584799498603
C         2.46979182715932    6.17961897318960   10.21266769394248
H         1.76383754860791    6.76275595770454    9.63794118958742
C         3.11564519449747    6.75463074473879   11.29333710530441
H         2.90738993656621    7.78088065907163   11.56212345483040
C         4.83906564816728    8.37071355111883   13.43063037982667
C         5.11050681468143    9.05131921642222   12.24903851063440
H         5.34040552990924    8.48961279175137   11.35330380524139
C         5.07629343111674   10.43294989803612   12.22954894815921
H         5.27209213159394   10.96285987747512   11.30839204657430
C         4.79055465552957   11.13962092081234   13.38684574303639
H         4.75698557878924   12.21903842869611   13.36448345672649
C         4.55398406330303   10.46375629176826   14.57328707581189
H         4.33886251699893   11.01949074246046   15.47562122808249
C         4.58400487207019    9.08201070489908   14.59725087858710
H         4.38408740886367    8.52451239322347   15.51200496776587
C         9.16815318102722    5.84087555082593   13.04125969823600
C        10.40475397141333    6.45312784349072   12.88118527413928
H        10.56680360237222    7.44009106779849   13.29277363854898
C        11.41574240755002    5.80451130156898   12.19630954406782
H        12.37461126732920    6.28663285295938   12.06638999298379
C        11.20352295081147    4.53687876921455   11.67764468106111
H        11.99717537548631    4.03166598520751   11.14639328889303
C         9.97158540679642    3.92249911707415   11.83354748017257
H         9.80287963059724    2.93748708333889   11.42083023509818
C         8.95727338361375    4.57750117302081   12.50714290869560
H         7.97344362060144    4.13857150699276   12.61121047579216
C         8.00279585030021    8.36061192212777   13.51259587316957
C         7.82439429188745    9.33570129774484   14.48399005871923
H         7.61547336216897    9.01873645135706   15.49899061739740
C         7.94346162550430   10.67227018357450   14.15344745012864
H         7.81355631791363   11.43100631765481   14.91214368763931
C         8.23595695630508   11.03662603313368   12.84913681033846
H         8.34019923818481   12.08050844311915   12.59098038730800
C         8.39062576044522   10.06470252011143   11.87249733489258
H         8.61084313852952   10.35304051138585   10.85434044281233
C         8.26418688834758    8.72764245834743   12.19781428757698
H         8.37640672176234    7.95876886737506   11.44447018134040
C         1.40371965331107    4.86402250117684   13.81742321897671
H         1.33872704425341    5.18346496762944   12.78260332599472
H         0.39455696332823    4.68117914694939   14.17183119132516
H         1.93824334817234    3.91858339898700   13.83322549032091
C         1.47845908339857    7.87891686953317   14.51005762417017
H         1.85493935936797    8.28324928790615   13.57577594017511
H         1.68024533630403    8.61166954712112   15.28629752843034
H         0.40052589276854    7.78596685699715   14.41898589224103
C         1.86410149849160    5.77240943516815   16.73852721219466
H         0.83720775223451    6.03502735175529   16.96635717691661
H         2.50926383234733    6.31223031061738   17.42580632701444
H         1.98307676408338    4.71257125651131   16.93630332210643
C         9.17864128045663    6.28502646254246   18.23881032970713
H         8.13014895316984    6.51228562607157   18.43293408731800
H         9.78438418705551    6.87160498172402   18.92170888143401
H         9.34308557479078    5.23898605246087   18.47705248760658
C        10.44917571093952    8.38962267347364   16.33460332871389
H        10.53693318024021    8.74830270580064   15.31349781411833
H        11.44659014515866    8.36383030880326   16.76291371028531
H         9.87454048380421    9.12812495660048   16.88634258066149
C        10.99718916874719    5.37785337827550   15.92474345691947
H        10.56769866964270    4.43757810849466   15.59078717742425
H        11.63945594139915    5.16681962416083   16.77422917261203
H        11.62564044693030    5.74974426140574   15.12282836089908
N         5.02458302058429    5.11028318948638   18.06422904932445
N         5.04786000926517    6.20730283078215   18.74629928004844
N         5.52265597818808    7.21325023809822   18.08538029346385
C         4.55054614249859    3.97029637913274   18.82488596692913
H         3.62138026830574    3.59939520465483   18.37535259862421
H         4.33560757156785    4.29414683955654   19.85358568683868
C         5.58173780221821    2.87227501433146   18.84000756156913
C         5.23155219038370    1.54980944403282   18.60086214512004
H         4.19712143271320    1.29605016263456   18.41221200958382
C         6.19310134630610    0.55341376043464   18.61324846122560
H         5.90748508121194   -0.47223799002678   18.42686759833041
C         7.51767853943712    0.86888852079801   18.86192141981042
H         8.26875256167375    0.09227055736279   18.86891474528344
C         7.87460719162131    2.18524628111915   19.10640715615565
H         8.90639026217362    2.43472920708640   19.31114105189170
C         6.91280890133899    3.17971359910413   19.09692331858747
H         7.18832034528556    4.20642763727506   19.29354002246456
C         5.50923413941306    8.46980448651283   18.83315579743239
C         6.40417671550286    9.47179439270761   18.09959105242103
H         6.03556120945299    9.60553606989255   17.07876126508675
H         7.42203351669060    9.07374284183271   18.04844809615403
C         6.39584204046018   10.81044750730420   18.83602872262550
H         7.03918373389090   11.52046121188150   18.30279225772269
C         6.92051282001266   10.61561357555741   20.25773601905444
H         6.93170368703527   11.57255015572014   20.78492679276847
H         7.94481953521841   10.23725409125279   20.22681636529597
C         6.02197694119394    9.62397770150600   20.99541483140381
H         6.39710829120501    9.48094485985203   22.01531462068486
C         6.03109037673468    8.28329032255034   20.26416859867771
H         5.39973755221709    7.56098853430425   20.78350330150295
H         7.04591775196357    7.87982134136678   20.22845919689319
C         4.07722120126869    9.02287940896496   18.89444904236961
H         3.44117683222427    8.30180073565846   19.41276018554095
H         3.68966819825745    9.14213089278048   17.87867985920155
C         4.07287680719985   10.36277839491027   19.62725697800952
H         3.04863391279286   10.75179633876983   19.66340070259449
C         4.59503286260655   10.16791426986905   21.05001110120364
H         4.57963790666840   11.12012194533145   21.58557285094835
H         3.95176505924790    9.46908967977644   21.58893947940064
C         4.96923979770367   11.35569946871222   18.88849022716110
H         4.59339588133159   11.51358621039996   17.87492634882399
H         4.95831380370445   12.31993716660240   19.40229463227530
O         6.46557159003594    3.43585476728920   15.92262842310766
C         5.47757680477006    2.63812018288374   15.25152527930551
H         4.74198502791428    3.31352311654701   14.79772197297702
H         4.98168817016098    2.00458481250512   15.99959385048949
C         6.23557572886571    1.78677098860876   14.23953343386039
H         5.70937852638582    0.86702033823116   13.99513387888424
H         6.41051159432643    2.35186715118469   13.32355319566801
C         7.55291636069301    1.55248605158369   14.97306272738088
H         8.37316780481469    1.29108601089157   14.30871053547642
H         7.43380958949116    0.76911748060221   15.72300162021515
C         7.76954707813432    2.90172566539238   15.65004760773533
H         8.31093060637656    2.82492456644814   16.59743783950852
H         8.29931626995139    3.59954634378057   14.98693379064437

