122
CSD_code = RIKWUF | q = 0 | S = 0 | Stoichiometry = C47H65IN3OP2Si2Y | MND = 6
Y        11.57200169891454    4.87439204690974   -1.13959040636186
I        10.91444593728973    5.28763190205952    1.62381398450269
C        12.29581971080028    5.62812920542215   -3.59812939709859
H        12.52444878151285    5.47726030138088   -4.66502786863041
P        13.70423762402114    6.32597467407128   -2.77498518747658
C        15.13222296057579    5.29850743527508   -3.27680224846271
C        16.42472295704482    5.77509960191724   -3.08486047574860
H        16.56758056279327    6.78927008776422   -2.74037933260387
C        17.51331820515953    4.96659945783370   -3.35201732929555
H        18.51423330378781    5.34608715010619   -3.20647273957853
C        17.32211643247784    3.67263730283843   -3.81175498021515
H        18.17343318231237    3.04410444049707   -4.02692860480844
C        16.03836357379129    3.19018588097493   -3.99872960286375
H        15.88765619348372    2.18365662996173   -4.36299043338641
C        14.94768964265286    3.99670579776516   -3.72292824987360
H        13.94407674952645    3.62290236564999   -3.86375244865264
C        14.19780326990459    7.97062692373798   -3.38707121753809
C        13.86420720235882    9.11602356844766   -2.67900617652390
H        13.33031426922895    9.01903614631973   -1.74558196265130
C        14.22735976070456   10.35958546602784   -3.16321790007599
H        13.97954831534276   11.24842330146999   -2.60183603092710
C        14.90909496380670   10.46436881535626   -4.36398549655458
H        15.19844257489772   11.43516383729539   -4.73804521803869
C        15.21536860659866    9.32406395931044   -5.08974926337392
H        15.73759758225266    9.40565148666776   -6.03204334650408
C        14.85700854627127    8.08027165787235   -4.60686898096242
H        15.09574266062503    7.18643931873827   -5.16862013915682
N        13.46099533816521    6.22514652094215   -1.20597954604279
Si       14.25121591970130    7.04538224201435    0.12034665552454
C        14.71415769874787    5.73433589280967    1.43441276680298
H        14.04065720254078    4.88469335073147    1.42810220204905
H        14.66506743918847    6.17707760231660    2.42338319915084
H        15.72738528942821    5.36775624381919    1.29138715072190
C        15.89623122367459    7.93853381999081   -0.26405721909408
H        15.82859755844923    8.60897639507929   -1.11433663470644
H        16.69753248317390    7.23131160334234   -0.45350682019097
H        16.18588882206765    8.52953288523140    0.59835027684716
C        13.00651880657856    8.33252104620087    0.80827922717057
H        12.05989316464699    8.29369618683325    0.27291491913911
H        13.39295838109961    9.34646137531481    0.74010147545532
H        12.79040946925729    8.13691429232592    1.85378856510282
P        10.90357942513236    6.72607373622348   -3.44427773347019
C         9.64595953383217    6.02173882419114   -4.56343425872263
C         9.09550777309768    6.63831980030822   -5.67904542442816
H         9.43573047844339    7.61666953403161   -5.98789692025035
C         8.09686335327698    5.99975939726298   -6.39436259424661
H         7.67166150099306    6.48316012579799   -7.26214902424351
C         7.63704977028616    4.75310284673358   -6.00143833616333
H         6.85610610125300    4.26474075581750   -6.56503199402146
C         8.17365985672502    4.13767528279765   -4.88184567049759
H         7.82498489147226    3.16671328233970   -4.56249879461896
C         9.17153448086996    4.77518636782274   -4.16867757048637
H         9.59163401661801    4.30576645035023   -3.28533506347538
C        11.18557118374274    8.40002949322666   -4.11372031570880
C        10.91081389118081    9.52688441954961   -3.35341733387779
H        10.55079495243381    9.40042080704371   -2.34356381834028
C        11.09469400631818   10.78837117800516   -3.89000776309665
H        10.86642011127731   11.66320889661443   -3.29904607437650
C        11.57061391168706   10.92838894537911   -5.18271715566159
H        11.71147092127779   11.91268348425688   -5.60402435337259
C        11.87538696885315    9.80547822028444   -5.93572542708719
H        12.25959851104083    9.91445496234525   -6.93958695071386
C        11.68499503536260    8.54442891909493   -5.40415143073568
H        11.92384677439499    7.66415584809013   -5.98773215041441
N        10.42431880020627    6.72190109710088   -1.92444640634046
Si        8.84140111543752    7.30151394651042   -1.43740097667345
C         7.81979058094312    5.80940152444012   -0.81648105293312
H         8.06079839460822    5.56952303706460    0.21464108005492
H         7.97790450980508    4.91982540388376   -1.42358534589731
H         6.75979549257592    6.04163335551388   -0.84950135548696
C         9.03845249488961    8.56362782636420   -0.01310040179093
H         9.58090747802447    8.14070243827185    0.82624131357572
H         8.05266781375514    8.83731222355155    0.34731533794414
H         9.54106877032520    9.48055314481432   -0.30734498500982
C         7.82617392542565    8.10148060290070   -2.84523175585626
H         7.31881021611157    7.34546782453924   -3.43692296428516
H         8.44012557962870    8.68877793240131   -3.52035024144667
H         7.06730864603344    8.75783776788330   -2.43307484424271
O        13.29854356204840    3.10360566168024   -0.27494492894621
C        14.66542467707583    2.85991557869093   -0.61185751095844
H        15.15446658339390    3.82512604178685   -0.76250080897936
H        14.71661973196826    2.27991721327032   -1.54383703992555
C        15.23766100609380    2.05073017996328    0.54433163295569
H        15.46125794818374    2.70282164351480    1.38845810060972
H        16.13514594196858    1.50520789320065    0.26328301328647
C        14.05607036765970    1.14184862591511    0.87152495906221
H        14.03321010445434    0.29338539450159    0.18659245382710
H        14.07676503924396    0.76780413350722    1.89188796683079
C        12.86096637015950    2.06453855114899    0.62923555668701
H        12.00984522117004    1.54546268514738    0.17740219682126
H        12.53407233199158    2.54385203566522    1.55878702961630
N        10.37073098846760    3.06857187562851   -1.10489702026736
H         9.93118056952100    3.11468888888412   -0.18222845890356
C         9.64263742639893    2.17274503180130   -1.84387640977922
C        10.14848023084785    1.65408868276705   -3.06495896648724
C         9.39907157260887    0.75314798704527   -3.80021758532351
H         9.79795839655123    0.35328259893047   -4.72132203843217
C         8.15473603569695    0.33063185982053   -3.37500615334851
H         7.58196037111699   -0.37085294727234   -3.96380343550799
C         7.66676427257555    0.79706976064527   -2.16692991316840
H         6.70995613681568    0.43570731836061   -1.82323121616564
C         8.37159818439756    1.70234314959811   -1.39763568477185
C        11.55224074230574    1.98235778767944   -3.53164394735929
H        11.92352432742355    2.83941953476477   -2.94359500295631
C        12.47067756285236    0.78860893607610   -3.24586117556092
H        12.45607296783170    0.55013815174626   -2.18452771078127
H        13.49666341347701    1.00548364093947   -3.54294746476527
H        12.13161081494049   -0.08736704900881   -3.79511107405525
C        11.61144434230544    2.35014483504013   -5.01642433140585
H        10.94147501457898    3.17908717847156   -5.23666839868051
H        11.32361706943848    1.50677124579878   -5.63883658603752
H        12.62325831679762    2.63533565917752   -5.30363149548634
C         7.81114491242673    2.13212977820014   -0.05452552616666
H         8.15347176913760    3.14643152642538    0.17766738114712
C         8.33125277932237    1.19296608619769    1.04073226637176
H         7.97293412844443    1.51326080364287    2.01671949617808
H         9.41959399163710    1.18598318666571    1.06129601366763
H         7.98704722473932    0.17707049491600    0.85598356439750
C         6.28318115119302    2.18764277044420   -0.01482135225758
H         5.89608973991428    2.73671549545936   -0.87057385198883
H         5.96430758499310    2.69579768811463    0.89307579343737
H         5.84640374363967    1.19197448362686   -0.00915874510334

