127
CSD_code = RIKXIU | q = 0 | S = 0 | Stoichiometry = C48H68IN4OP2Si2Y | MND = 6
Y         3.98553151645478    8.06627463417585    4.72373431136083
C         5.14303781613090   10.59969599047803    3.76184996631693
P         3.96202356790862   10.15138500450914    2.52062163699503
C         2.72185183209191   11.49087075837911    2.53809356880117
C         1.74610099150888   11.40047339047211    3.52395037536087
H         1.75662361559269   10.55413246079321    4.19804993815532
C         0.77139947007653   12.37313345033117    3.64191586118224
H         0.02373390401908   12.29684429958963    4.41829734229307
C         0.75753363244024   13.44474525161596    2.76438560073652
H        -0.00085275342364   14.20883990989945    2.85294922522326
C         1.71716440096541   13.53283125312478    1.77002466580990
H         1.70383046485890   14.36304226082785    1.07853109455691
C         2.69723401539865   12.56273248021283    1.65529983624592
H         3.43537411633611   12.63955846111852    0.86986113802128
C         4.77664242828966   10.32073887857045    0.90612126188867
C         4.62336079396323    9.35778359527924   -0.07998897486747
H         4.04650456774812    8.47107359542383    0.13894762217572
C         5.20859242420570    9.53555726185826   -1.32095249294987
H         5.08301355227568    8.78577496606654   -2.08864642405915
C         5.95138864381888   10.67545495394857   -1.57848047702444
H         6.40191932340952   10.81885587678609   -2.54958430785676
C         6.12663942102506   11.62972014298727   -0.58819167112902
H         6.71825363448116   12.51186917876191   -0.78580318023051
C         5.54396661344980   11.45405536278385    0.65208544709079
H         5.69123861125577   12.17962637418716    1.44072532376341
N         3.22851179534980    8.72211578474564    2.69088898063066
Si        1.73243257940542    8.32926582814277    1.86851360296847
C         1.91895189809624    6.61455483949709    1.03625973273932
H         2.19846176011230    5.84103534983899    1.74406894670171
H         2.64472667963746    6.60473976020708    0.22798694854172
H         0.96181702946070    6.33021870226789    0.61213533812994
C         0.32161025149545    8.23751959681626    3.16773415587493
H         0.70472918056435    8.21426424252138    4.18792350382192
H        -0.26525252905339    7.33607583962752    3.02658593390685
H        -0.35264207135531    9.08552479787178    3.08726628547785
C         1.20590027228278    9.58286838158538    0.52579515291810
H         2.06281238323026   10.04727835298591    0.04764799464979
H         0.59544225360208   10.37812899388367    0.94158211196784
H         0.62268302858883    9.08982315897471   -0.24446214641531
P         6.42856923516081    9.39900416329275    3.82208257055253
C         7.46283362476851    9.70517727204390    2.35803702938521
C         8.26088449531085   10.84423514728319    2.35042435961423
H         8.24889999637176   11.50331174502720    3.20805922676751
C         9.05892344894825   11.12548987579124    1.25849967717841
H         9.68311997291086   12.00726590693414    1.25981876440037
C         9.06054948097040   10.27429956275073    0.16457012579575
H         9.68965777907117   10.48960747681096   -0.68650977415335
C         8.25053422590061    9.15119605303464    0.15905708145643
H         8.24258414068419    8.49316813116388   -0.69765385740055
C         7.45004945101697    8.86872313605867    1.25153346436567
H         6.80682402505681    8.00166419332057    1.25046804382319
C         7.56855869148330    9.82684524134150    5.18228451072751
C         8.83799505225204    9.25610448415776    5.12805113667868
H         9.11062112673426    8.67269199321558    4.25909574638876
C         9.73442309154460    9.44143280603064    6.16231779520785
H        10.72007068967953    9.00201441902600    6.10869208112661
C         9.36883922697381   10.19664353346895    7.26637465657777
H        10.06990400239934   10.34644150485891    8.07429291133883
C         8.10548634524593   10.75872477084835    7.33002825871106
H         7.81850710241403   11.34835786667039    8.18890606371528
C         7.20216220173262   10.57020814126793    6.29657481108879
H         6.21866496425595   11.00983562415214    6.35031025819454
N         6.06446887311848    7.83040638884412    4.01161653520656
Si        6.71636998221986    6.30443212709023    3.49120424007585
C         5.56413080451069    5.70839705863505    2.07151794047144
H         4.74313069778103    6.41062880724340    1.92129106819551
H         5.12780331537893    4.74107896413162    2.30376905649010
H         6.09140734809135    5.60472019845682    1.12675939316993
C         6.57950316667986    5.07455395764691    4.95377389380373
H         5.66959647693042    5.21376188218197    5.52959462969126
H         7.42444621083288    5.15908459320395    5.63079998067529
H         6.57170831359186    4.05767240299068    4.57532745954352
C         8.55193467392385    6.24184971511877    2.96244091626297
H         8.74591883865784    5.30049077858132    2.46009136257638
H         9.20894337689709    6.28792886259306    3.82488756987287
H         8.83177881039120    7.04116053092015    2.28551902248824
C         4.35417516639619   10.95235217009492    5.02689690831878
N         3.77190909007614    9.93064681929338    5.69763624812402
C         2.92311399467444   10.34111034568341    6.81883202162812
H         2.43887809191387   11.29284725899072    6.54700597334762
C         1.85471632963583    9.27550468239434    7.08948380736006
H         2.34755853073419    8.31915046533771    7.31571605278790
H         1.22843274723061    9.14057920194465    6.19748192954549
C         0.96774664351126    9.67417260657614    8.26666876962100
H         0.43717771658369   10.59678487901391    8.02004071014736
H         0.22398042600371    8.89466833236748    8.44647142898815
C         1.80746010883655    9.89764541638137    9.51969766633454
H         2.29721469994484    8.96120992753606    9.79952067607106
H         1.16380455866440   10.19754173053176   10.34947888912340
C         2.86007113126259   10.97098339771427    9.26177162643094
H         3.47114449936337   11.11834940313703   10.15579179364573
H         2.36317437808024   11.91702215715421    9.03675414423772
C         3.75133577328818   10.58683414999798    8.08612653414003
H         4.31574169910655    9.68067758876628    8.32357885276556
H         4.45857729313133   11.39024800255829    7.87647164042287
N         4.20385166922984   12.17087974856729    5.40028786092579
C         4.70400952866766   13.28572887222813    4.64504221428361
H         4.65810013074105   13.08549772687453    3.55954829375497
C         3.81218619566174   14.49072336827528    4.95369184901947
H         3.84879048758489   14.67857760534677    6.02841361655888
H         2.78155567259812   14.24410652913628    4.69155464800264
C         4.27664466921915   15.72215509153754    4.18643087687481
H         4.19136750353790   15.52968468733230    3.11341400489849
H         3.63360202325921   16.57277921664038    4.42500475039854
C         5.72611491345740   16.05121741212041    4.53054312605608
H         5.79699479840922   16.30046497436463    5.59191883883303
H         6.05985148868650   16.92078321378531    3.95862893781288
C         6.62572919773989   14.85578157466800    4.23299072842272
H         7.65897436393511   15.08839326583715    4.50460279810327
H         6.60194800134567   14.64476208779915    3.16020743033836
C         6.15796881206477   13.62244634069289    4.99735427333381
H         6.79358107140466   12.76766509606206    4.75227612195626
H         6.22942509932408   13.79790649591311    6.07334417260209
O         4.96789360963959    7.24799469351623    7.06813236766096
C         4.37784709572809    6.57011740988376    8.17946206559899
H         3.46419630070563    6.07748303450108    7.84688244224002
H         4.14242899957603    7.29371174585294    8.97315317935388
C         5.45215821522848    5.59415763848231    8.65125472560419
H         5.30669043990356    5.29264652747048    9.68531195929645
H         5.44288452597535    4.70601160987954    8.02069734796870
C         6.73849659528970    6.40065967645886    8.43894855556553
H         7.09145869943920    6.83514804633964    9.37320054945369
H         7.53527916046157    5.78504212493108    8.02826019224747
C         6.31800123236808    7.51081599933866    7.45809338092209
H         6.37122514178837    8.49553501822064    7.94080824018232
H         6.92393518215564    7.53358076889046    6.55038156359410
I         2.53430192082330    5.65072112627091    4.95640197524483

