119
CSD_code = RIKXEQ | q = 0 | S = 0 | Stoichiometry = C44H63IN3O3P2Si2Y | MND = 7
Y         5.32037983566199   12.99490541811830    7.10800144033441
C         4.59741447133896   14.28651655572062    9.74000725201102
P         5.75477326785691   12.99492362711928   10.06252454562617
C         5.19410906909569   12.28756771003695   11.65082129699367
C         5.38200312026067   10.95176499257226   11.97378907864856
H         5.86021854589095   10.29594734858539   11.26494420023548
C         4.93898186078572   10.45440002904692   13.18613129238948
H         5.09383973942018    9.41257451863545   13.42722439365282
C         4.29332660891010   11.28615644159271   14.08460486967622
H         3.94475766471733   10.89718378824309   15.03004219604606
C         4.08394858699498   12.61639199525533   13.76096977426497
H         3.56519766925206   13.26606227334686   14.45101695158200
C         4.53217295251216   13.11581252910796   12.55298174564428
H         4.34410010534741   14.14549446325853   12.28361447384310
C         7.25767243763661   13.94272336442992   10.48479685710346
C         7.33681452012527   14.69525673017546   11.64983154905354
H         6.52644007191124   14.67177087779498   12.36185376791028
C         8.45630391645484   15.46748144828169   11.90134096928693
H         8.51323214765905   16.04905802812467   12.81028739270053
C         9.49964591553181   15.50166268712310   10.99126395833581
H        10.37041896516258   16.11013430585561   11.18720104174914
C         9.42200134538509   14.75786080480586    9.82584220975840
H        10.23471703009166   14.78976557972274    9.11326394537540
C         8.30499923806864   13.98202101249274    9.57388185262439
H         8.23334074215901   13.40183886066157    8.66268185188592
N         6.05412848663666   11.88359636653339    8.92753345116515
Si        7.31051312282792   10.67082037616148    9.01541111288259
C         8.38523885317940   10.78904632950181   10.59821680558890
H         9.39595947496088   11.11337473159195   10.37119166028057
H         8.45786170148098    9.82765601439131   11.09568354178276
H         7.96990810133153   11.49969463435496   11.30802352254318
C         8.48656139006521   10.88853960634044    7.51127684584163
H         8.40297800270543   10.04251669794665    6.83643685010930
H         9.52575233305341   10.95685553700367    7.82134264873962
H         8.24423364514746   11.78490459850776    6.94250530028674
C         6.49256302828493    8.94406533462785    8.87640071086171
H         6.07996867931434    8.78811736805898    7.88412775708647
H         5.69179509481234    8.78168388820353    9.59230551088868
H         7.24092753882975    8.17546185637481    9.03898897373234
P         3.09534347078621   13.71935181664891    9.02758850754540
C         2.27418700486469   12.76127087617730   10.33458762341378
C         2.62572675281627   11.42338605137648   10.45686236268783
H         3.34465962308597   11.00541936758349    9.76464387585631
C         2.06208749775630   10.64235323490260   11.44760344654849
H         2.33481798697879    9.60090573644320   11.53681142790036
C         1.14924186577329   11.20015129858716   12.32751912964474
H         0.70555821259817   10.59204215033846   13.10216273113689
C         0.80414293043622   12.53670413757949   12.21434764856918
H         0.09175889255078   12.97006398203577   12.90156380049273
C         1.36452248810791   13.31971029658050   11.22085614623400
H         1.09187066334157   14.36138225022784   11.12707468085346
C         2.14400539032398   15.25609782086714    8.83246918887585
C         1.33866650289463   15.45048055812310    7.71902047051931
H         1.24800252262723   14.65483150584206    6.99270949087623
C         0.66771552099173   16.64819111852382    7.54424544142637
H         0.04259607691414   16.79585291612294    6.67488903942435
C         0.80250932250010   17.65749527796461    8.48319319138710
H         0.28264431178186   18.59476241358555    8.34547010590609
C         1.60902786917697   17.46824364903371    9.59464642996508
H         1.71723214506564   18.25846641849418   10.32335379677364
C         2.28334299896634   16.27415055999345    9.77111566940680
H         2.94033477659146   16.12865618553110   10.61427655751665
N         3.15903034941374   12.89767768196839    7.63836336497424
Si        1.89149097809027   11.80354656182381    7.13660202047873
C         2.42179282714223    9.97583943527940    7.38502343435403
H         3.44024917629948    9.88582108039264    7.75478152204347
H         2.37812448627430    9.43625746706597    6.44439917277799
H         1.76771929181027    9.46711103291225    8.08757245052578
C         0.23639337012736   12.07483603565916    8.05714674423511
H         0.15514970984824   13.08006437648230    8.46002663335113
H         0.13069957103154   11.38583062023112    8.88868778246928
H        -0.60364340906322   11.91330887298941    7.38980724158932
C         1.56042945415323   12.10396672000075    5.27295548385346
H         1.03574857976035   13.03600650371096    5.08091361753253
H         0.93794471687801   11.30075889060552    4.89436701111419
H         2.47764803328256   12.10188242892767    4.69355867406234
O         5.88203566112033   14.79059985298115    7.75923255368648
C         5.25270853857280   15.27484365363800    8.79932947264356
N         5.14261290499564   16.48474831235137    9.17954652973522
C         5.76800498116285   17.62385890579070    8.54165878777160
C         7.27827520276522   17.59520786028693    8.81500211573642
H         7.45683980578304   17.57542118651081    9.88793695808954
H         7.76335637219386   18.47063365335129    8.38712524578150
H         7.72074915315518   16.69958098026041    8.38522970093049
C         5.15888455064135   18.86186475274280    9.21247717565023
H         5.31828614477276   18.80898856549935   10.28558319717473
H         4.08819947957066   18.89156468327637    9.02634338961611
H         5.61593828591605   19.76978730791553    8.82487774807647
C         5.51104219703933   17.69692954316817    7.03080770353811
H         5.86186700285053   16.78622181602202    6.55042666954483
H         6.03305239955506   18.55088848340342    6.60109826786965
H         4.44218748606673   17.81016783179255    6.84969705780222
I         5.41849227711705   10.80102572403843    5.32924556811946
O         4.46585239228495   14.24072618977401    5.05044250743399
C         4.68500459492864   14.04461515322453    3.65457137072622
H         3.80381229567466   13.56073021206279    3.20957392889152
H         5.55130126990576   13.39849851749318    3.52140731997003
C         4.86533711159130   15.45311624680357    3.08411457936231
H         4.57856179046348   15.50388507512301    2.03644395191608
H         5.90574306675287   15.76450736552444    3.17440443139123
C         3.96537918678273   16.30733711258666    3.99099565827351
H         4.50632438505867   17.16219226199916    4.39138339535509
H         3.08763978969991   16.67477751029582    3.46248841082716
C         3.55601790928174   15.33537558963612    5.11107033281002
H         3.61093624403960   15.76886868181675    6.11086354678951
H         2.53806641986124   14.96316726182495    4.93426115435111
O         7.52032527873928   13.67985733228612    5.60234076111452
C         8.23921813771389   14.87661390959157    5.87830531982225
H         7.93473883470219   15.23578914762830    6.85940573454592
H         7.98760333108597   15.63278396976559    5.11983250931977
C         9.71985437158226   14.49589418630845    5.78032339129559
H        10.08944928610260   14.16088995409483    6.74831215740239
H        10.32506781766639   15.33806981255221    5.45271515986364
C         9.71431235602875   13.33638574093145    4.77044151102348
H        10.24650344521197   13.58388785549157    3.85447332140050
H        10.16369190705913   12.44140651648685    5.19659665385652
C         8.21897698585030   13.11361598339026    4.49197750207117
H         7.92506106510278   13.64225143886383    3.57351577793417
H         7.94931704070468   12.06243780109989    4.40274195562613

