77
CSD_code = RIKYUH | q = 0 | S = 0 | Stoichiometry = C31H39B2N2O2Sc | MND = 6
C        -2.64518991703789   14.06021486232260    4.80166160293368
C        -2.64523468656099   15.56030818971012    4.80163585898963
C        -1.64686115039561   16.26661720747841    5.46614081852422
H        -0.86570431351913   15.72738532157238    5.98508563929649
C        -1.64826133784738   17.65019967700470    5.46519607248173
H        -0.86731196064157   18.18749593766673    5.98458712018019
C        -2.64533989017215   18.34529594168366    4.80159799491903
H        -2.64537989944027   19.42564487416846    4.80158240645389
C        -1.30846419952364   14.04587041158809    2.80462847675545
H        -1.26630402746902   15.13641728849347    2.97084637910108
C         0.13465023779200   13.53499576219590    2.68720815311067
H         0.71273210890855   13.85604469952359    3.55199587544975
H         0.60127933632183   13.93101330644552    1.78713981518283
H         0.14954844574983   12.44650644212373    2.64967573910651
C        -2.07255264269086   13.79584107484394    1.52036716418805
C        -2.23521625281982   12.50306619994419    1.03214207028436
H        -1.79799745748777   11.66803018014750    1.56870238096703
C        -2.96199439469671   12.27412498650834   -0.12211969067072
H        -3.06508817305951   11.26678504880424   -0.50050984060704
C        -3.55199955578847   13.33051152643052   -0.79751116937650
H        -4.12076033026945   13.15059949953987   -1.69881597021576
C        -3.40760012796051   14.61851736333949   -0.31184943904110
H        -3.86662017198174   15.44839824008071   -0.83045666932518
C        -2.66991367597103   14.84818292248983    0.83783018948998
H        -2.55812021972932   15.85802922812475    1.21029789926436
C         0.07781226232034   12.94416443643201    6.76159943888364
H        -0.76546439716355   13.58469378261206    7.02344777719604
H         0.68477101708501   13.44204451726894    5.99376642448162
C         0.93406042098738   12.57528311305239    7.98699448835614
H         1.97752944867312   12.83964344266892    7.81640789031875
H         0.58691194521393   13.08769121194023    8.88156420421517
C         0.76730678378017   11.05681435917891    8.09468691416551
H         1.66806900285237   10.55379066273410    8.43705131872260
H        -0.05762469047174   10.81480830319882    8.76337569930983
C         0.39269213658765   10.68117421907671    6.66466596149673
H         1.28706518782372   10.63665679846960    6.02724358739608
H        -0.17677385443579    9.75325119695258    6.56637830991879
B        -2.26378134636262    9.17709965607312    4.18336070570969
N        -1.99075409331984   13.36635828005765    3.88721369944975
O        -0.45768981871408   11.73610904201793    6.22973137399736
Sc       -2.64529005388853   11.32424204200482    4.80161447752674
C        -3.64366147988820   16.26652583837256    4.13711261902154
H        -4.42478419435327   15.72722499969456    3.61819025657020
C        -3.64236700281803   17.65010807308748    4.13801915739137
H        -4.42335767837872   18.18733014161851    3.61861306829856
C        -3.98187105273894   14.04586707790523    6.79872602800837
H        -4.02411381801837   15.13640406438473    6.63246704941464
C        -5.42494212431506   13.53489890169093    6.91625108283153
H        -6.00308616358839   13.85586373308366    6.05147476909499
H        -5.89155313881886   13.93092853239479    7.81632393357628
H        -5.43976087504216   12.44641032605318    6.95383532023062
C        -3.21769043876821   13.79594525563500    8.08295511938985
C        -3.05489435898375   12.50320149256456    8.57122006831528
H        -3.49208269510681   11.66811038175238    8.03471981708940
C        -2.32802616748639   12.27436254435622    9.72544619055624
H        -2.22483782715419   11.26704735555784   10.10387601968262
C        -1.73805680485531   13.33082086690322   10.40075712071241
H        -1.16922364342477   13.15098780058837   11.30203208371794
C        -1.88258986791904   14.61879674210851    9.91505568509156
H        -1.42359663316393   15.44873275935702   10.43359822430760
C        -2.62037119434744   14.84836028498045    8.76541643334608
H        -2.73226318319048   15.85818305237474    8.39291533148703
N        -3.29958946961276   13.36635540472513    5.71613434489278
C        -5.36819306208513   12.94436784904294    2.84146506474521
H        -4.52491742952310   13.58490762896185    2.57962987776944
H        -5.97514438010917   13.44222256520249    3.60932378530645
C        -6.22445055364370   12.57555661024905    1.61605679466344
H        -7.26792479140186   12.83989229205448    1.78666984058854
H        -5.87731174867835   13.08802752834209    0.72151452212786
C        -6.05766631120967   11.05709812644595    1.50827338970697
H        -6.95843428807268   10.55407794588094    1.16590917525855
H        -5.23276204949670   10.81514325278181    0.83952772470153
C        -5.68300431498958   10.68135487203702    2.93825799447255
H        -6.57736353708434   10.63671545466696    3.57569038738979
H        -5.11348083975128    9.75345697098046    3.03644365842216
B        -3.02678323141567    9.17719964641818    5.42025718859795
O        -4.83267934524080   11.73629237178299    3.37327972463501

