75
CSD_code = RIKYAO | q = 0 | S = 0 | Stoichiometry = C32H38N4Zn | MND = 4
Zn       -0.00000020207925    4.13089928728237    3.66232176027405
N         1.16073632802559    5.43357117550354    2.45447621726447
C         1.68033721870812    7.28586302736192    1.05138118790352
H         1.36036885033170    7.98512163512458    0.29555405652817
C         3.32088829302449    6.41330313467774    2.54474868486286
H         4.30654090709387    6.42526428399581    2.98400463894975
C         2.39092390061654    5.46209348896322    2.96242169363604
C         0.81979367211550    6.31434364167899    1.51747019376718
H        -0.18828265446150    6.22848507861034    1.13541554979837
C         2.96241489571532    7.34189433424568    1.58860059104999
H         3.66166916357383    8.09853637160451    1.26505186358572
N         1.64087030829222    3.67106768957395    4.45979776498043
C         2.76558920102471    4.41234946037477    3.97318477340239
H         3.31545479311799    4.90852162872193    4.78691892142413
C         1.82289948366254    4.14346518681961    6.87563492810484
C         1.52595234942109    1.88286732816547    6.06127118550846
C         1.55306839546488    1.42091031365040    7.36500450110860
H         1.43514142770127    0.36205533346463    7.55550738693684
C         1.85406269943013    3.64511558342587    8.16918371876314
H         1.95129455893131    4.33899073653400    8.99331545831927
C         1.84397830483106    5.63334049900900    6.68467486441829
H         1.33173334400711    6.11331567887905    7.51619834492802
H         1.32741306983886    5.90619409968543    5.76516685934380
H         2.86203487211474    6.02678963175015    6.64544587542943
C         1.32388606936234    0.91867125557643    4.92843172573775
H         0.47702721270160    1.22524475373656    4.31284567044957
H         1.13920997496703   -0.08480422923229    5.30627457455278
H         2.20326991875515    0.89541824165437    4.28706581650274
C         1.68698286951232    3.25534537317022    5.79304856474562
C         1.73594387863119    2.29275188485925    8.42359451047426
H         1.76418885531364    1.92256279158535    9.43834031146936
C         3.79766973165264    3.45434088678735    3.29840731874036
H         4.70541624315210    4.00837782018170    3.04996664360085
H         4.05287923058085    2.69762952526885    4.04159884607214
C         3.23698942154806    2.78204961047087    2.05433812567516
H         2.27977918614131    2.32726628655499    2.29560603241346
H         3.91600030225801    2.00942740216565    1.69858325039901
H         3.08801875166793    3.50518187087916    1.25398714966508
N        -1.16073680353261    2.82822699000220    2.45447683576308
C        -1.68033863646977    0.97593577355755    1.05138143853232
H        -1.36037035607263    0.27667648439903    0.29555491595910
C        -3.32089050194402    1.84849871011708    2.54474633935761
H        -4.30654377645250    1.83653924795199    2.98400082929121
C        -2.39092510493801    2.79970698492077    2.96242051931409
C        -0.81979421873393    1.94745391010983    1.51747136912651
H         0.18828277567330    2.03331082849767    1.13541812359227
C        -2.96241720388064    0.91990671246367    1.58859903617658
H        -3.66167227656377    0.16326580538770    1.26504938062254
N        -1.64087158904783    4.59073436365083    4.45979518734803
C        -2.76559016198270    3.84945162980333    3.97318305975097
H        -3.31545531879661    3.35327975741683    4.78691769060634
C        -1.82289799481161    4.11833456880111    6.87563232576734
C        -1.52595159878877    6.37893304760193    6.06126994982840
C        -1.55306600868378    6.84088911356451    7.36500353645293
H        -1.43513855418839    7.89974392680680    7.55550707634304
C        -1.85405970943637    4.61668329822100    8.16918154054446
H        -1.95129055915188    3.92280749911220    8.99331286006096
C        -1.84397686468637    2.62845935249716    6.68467132814237
H        -1.33173036696133    2.14848376374710    7.51619361799091
H        -1.32741300219886    2.35560649604387    5.76516226403365
H        -2.86203336256737    2.23500990373033    6.64544370176242
C        -1.32388579590560    7.34312954386795    4.92843080470648
H        -0.47702617445521    7.03655707260908    4.31284526161283
H        -1.13921108589165    8.34660519651976    5.30627388447551
H        -2.20326923832853    7.36638151476963    4.28706430966219
C        -1.68698265146711    5.00645516488547    5.79304651536681
C        -1.73594028754920    5.96904673851787    8.42359318871736
H        -1.76418373511812    6.33923507356830    9.43833930195359
C        -3.79767114436010    4.80745972758610    3.29840564412000
H        -4.70541765456014    4.25342261661117    3.04996550064622
H        -4.05288043272199    5.56417133024841    4.04159700498737
C        -3.23699127925587    5.47975068158609    2.05433607129277
H        -2.27978144954985    5.93453493623221    2.29560379862020
H        -3.91600276038018    6.25237211478070    1.69858063967160
H        -3.08801994299353    4.75661801704266    1.25398558699772

