59
CSD_code = RIKZIX | q = 0 | S = 0 | Stoichiometry = C28H26N4Zn | MND = 4
Zn       14.32220614273423   10.74165059645941    0.52057869438917
N        14.27752696200789    9.21051475728292   -0.88693870525427
N        12.60705874799546   10.10659362396354    1.00580772109110
C        13.05456097273268    8.66556482210156   -0.85231544008474
C        12.20546468950979    9.01185722498036    0.29879031708053
C        12.63546652730405    7.81451959334953   -1.88092476737559
H        11.63650546628144    7.41170361671003   -1.87406734327171
C        13.49702474983363    7.51304425391098   -2.91391458306903
H        13.18303552244233    6.86142976855248   -3.71604121773587
C        14.77377736765300    8.06486853060235   -2.91251132619537
H        15.48004952207081    7.84851117322603   -3.69767353867177
C        15.10814714850757    8.91408135801237   -1.87814071400363
H        16.08130578286102    9.38531912074626   -1.83338362241813
C        11.16234604354046    8.21418459029824    0.63235915985263
H        10.58904156821684    8.40503116171418    1.52108969106159
H        10.91299803561779    7.32878327210669    0.08089991475596
C        11.78668549835784   10.59819495691343    2.02863768381359
C        10.50751117062868   11.11550891399767    1.76897775280504
C         9.76409007496874   11.62133526819178    2.82482134357329
H         8.77815066455220   12.01983281431133    2.62626104316415
C        10.25821121225757   11.63695149435516    4.11711751218841
H         9.65793141959351   12.03571372382885    4.92168915565981
C        11.52956075106921   11.14935176944799    4.36722954753447
H        11.93016733462455   11.16247259800626    5.37070038910255
C        12.28247233091193   10.63606877551740    3.33017480874058
H        13.27231099908306   10.23881987285577    3.51128871544777
C         9.96372347426342   11.15573118631045    0.37337980686190
H         9.16621775927395   11.89130121349879    0.29345888712831
H         9.57002772966135   10.18025826708379    0.08329376540112
H        10.75676075433568   11.40987326470844   -0.32924610320157
N        14.36688334393962   12.27280083112456   -0.88691100785855
N        16.03734679613131   11.37670974358591    1.00582847606014
C        15.58985282806939   12.81774359064175   -0.85229461300436
C        16.43896030144680   12.47142906689292    0.29879653025129
C        16.00893547005924   13.66880461836533   -1.88089585047530
H        17.00789733733714   14.07161864517485   -1.87404689487384
C        15.14736356059228   13.97030114463768   -2.91386797981535
H        15.46134484070355   14.62192805427773   -3.71598796903031
C        13.87060861494592   13.41848228916139   -2.91245717683898
H        13.16432648762742   13.63485617221992   -3.69760583268116
C        13.53624998769669   12.56925407660793   -1.87809602992567
H        12.56308928676258   12.09802079851356   -1.83333035548770
C        17.48211466461272   13.26906655345302    0.63234018249530
H        18.05543382780877   13.07820088657320    1.52105701720913
H        17.73148422330782   14.15445648632192    0.08087280931088
C        16.85771742385826   10.88511444030927    2.02866679297251
C        18.13685956840642   10.36772602424976    1.76899963435865
C        18.88028279131008    9.86191280633831    2.82484781146914
H        19.86619741655802    9.46335660471387    2.62628195378104
C        18.38619334112577    9.84638483756894    4.11715731105087
H        18.98647343970537    9.44763136086340    4.92173306898134
C        17.11487609490986   10.33406363328874    4.36727886358732
H        16.71429603944485   10.32101485383459    5.37076130245077
C        16.36196282702042   10.84733378627358    3.33021839205904
H        15.37215061658303   11.24464410441211    3.51134043987350
C        18.68060771165803   10.32741894109042    0.37338906638886
H        19.47809327962862    9.59182569619450    0.29348217931848
H        19.07431806363095   11.30286812473740    0.08324364606939
H        17.88754339222632   10.07326024553519   -0.32920031606809

