91
CSD_code = RILCAT | q = 0 | S = 0 | Stoichiometry = C33H52IrO3PS | MND = 6
Ir       -0.06282546122270    5.98490039266030   16.15326999033502
P         1.77788890250142    5.85384842416378   17.60116912956545
S         1.55246312849930    7.05314703414479   13.57531742395684
O         1.35605560518838    7.04107724188929   15.06240774700769
O         1.84730094460381    5.72774333198747   13.07381466121171
O         0.50416475742766    7.77278335376819   12.89353817050341
C         2.86280825212213    7.36997897359332   17.57190797129226
H         3.18758900646194    7.38611008033609   16.52505297376266
C        -1.30214758626783    4.48412933892150   16.98120330283757
H        -0.80404778902123    3.82331426650629   17.69000731306065
C        -1.67304181225876    5.76633884453557   17.47819094811208
H        -1.44742523596030    5.95972338274684   18.52843183367945
C         2.10185543382870    3.23875094502927   16.82647435363937
H         1.61199951557003    2.96497448430393   17.76413117763178
H         1.32488300540926    3.44877159898191   16.08750954177631
C         2.93301564216153    4.51002517505125   17.01353234714432
H         3.70067319992799    4.34031196429060   17.77815833068543
C         1.46951879437411    5.35877773635569   19.39447055286799
H         0.65095146727279    4.63214180045800   19.30594119110345
C         2.06089325173072    8.65636583021915   17.76935445637659
H         1.18383387642406    8.62320256444679   17.12003534343563
H         1.72298410042270    8.75696082240056   18.80101275886321
C        -1.12803415851276    5.40237454390017   14.34723867507771
H        -0.38881511220087    5.47941027841742   13.55753947141157
C         4.10583388576630    7.37199614317649   18.45683649370529
H         4.67530293653684    6.44933093489904   18.32797360978996
H         3.82435724729745    7.45706449014540   19.50815303642636
C        -2.91330568749359    6.51768045159429   17.02888799387702
H        -2.86086046285402    7.52170066531696   17.45342157574670
H        -3.80302956416319    6.03624592075292   17.44840807256049
C         2.93237418414267    9.85740767807545   17.41018138484755
H         3.20396678006747    9.79971403626429   16.35438275013214
H         2.37301197475497   10.78264181543388   17.56528544180566
C         4.27886954749271    7.42826278207755   13.38959482160105
H         4.32001789616469    6.36495733977434   13.21558157421190
C         0.36870152386283    6.07711297451645   21.53053475796904
H        -0.02357503628484    6.92880262225410   22.08991321196422
H        -0.45481437293085    5.38059796177100   21.35880735123260
C         3.63329890232774    4.85977614378877   15.70183491752578
H         4.27123689454203    5.73619484903880   15.83287085421749
H         2.89217505643267    5.08962454544839   14.93447148790104
C         3.04540590683711    8.03145654183269   13.51036306604853
C         4.49796124835741    3.69279986384405   15.22846734992896
H         4.98797835493251    3.96191360841562   14.29105616016768
H         5.27860841847930    3.48675345057204   15.96770625811725
C         5.42662635028329    8.19803941151401   13.48539823564019
H         6.39738774229818    7.73116525217177   13.39485934297380
C         2.58703145815561    4.68146085694580   20.18701637247307
H         2.96654621890550    3.80826670815243   19.65664097387440
H         3.41569523167402    5.37138930991451   20.34644767178742
C         2.95901436894290    2.07573146996597   16.33599529831780
H         3.71591013129837    1.83315364062486   17.08757084585794
H         2.33354750551519    1.19136723137005   16.19680101700933
C        -1.71366051906419    4.02355380488689   14.52096592960324
H        -0.95689493296210    3.29741974085650   14.22098441047435
H        -2.56212566065376    3.90575043240464   13.83952310846889
C         4.20129999490368    9.87159685518766   18.25884606858413
H         4.82952261371113   10.71836467359386   17.97467795094182
H         3.93397021602021    9.99396840004260   19.31171263340247
C         0.93136090744561    6.54675837691916   20.19160777434024
H         1.73994047447450    7.25128904187021   20.38881685898543
H         0.16168005498759    7.06192128234604   19.61321522862677
C         2.93945898322436    9.39112621721096   13.71615735388116
H         1.95473343795021    9.82343005234312   13.79931193218273
C         4.97870073967171    8.57023945484034   18.08325350903139
H         5.87622560569806    8.58531501706463   18.70648685815043
H         5.29361998052445    8.47737451739804   17.04084768933120
C        -1.69380185426862    6.56955047896826   14.80828666845440
H        -1.35378188981852    7.49238661209174   14.34930277364851
C         4.08730767322348   10.15996102878024   13.80588950947969
H         4.01328284035333   11.22637296432499   13.96635588507513
C         1.46413773151183    5.38476036940814   22.33537315557504
H         1.06253175800939    5.02340879731584   23.28397521670459
H         2.25612284616898    6.10275970038773   22.56074418611674
C         5.34328611530447    9.56920024580707   13.70185427501152
C         2.04716474653166    4.21965097078029   21.54256425072217
H         1.26849325228170    3.47045119054256   21.38135951209413
H         2.85007355473761    3.74816101644661   22.11337569812754
C        -3.03847968100939    6.62652800942743   15.49776136758872
H        -3.66833758165358    5.82468536420884   15.11089639359160
H        -3.52625713370670    7.56996161447450   15.24897476436553
C        -2.14801698734093    3.72926489738450   15.96826368521963
H        -2.05481440678683    2.65759038455530   16.15170206648187
H        -3.19680884533321    3.98977423744049   16.11343894643477
C         3.64552254117561    2.44648087401803   15.02661769681768
H         2.89253199341204    2.65489411264134   14.26484534869808
H         4.26442432487398    1.61686119946562   14.67763152673892
C         6.58356166818804   10.40577938709892   13.79945015601057
H         7.43521999355278    9.80530566971220   14.11020012413408
H         6.44665461226467   11.22025695073953   14.50740120782315
H         6.81423446259068   10.84207494826631   12.82725668598405

