48
CSD_code = RILFOK | q = 0 | S = 0 | Stoichiometry = C21H21AgNO3P | MND = 3
Ag        3.98067047679057    6.69213704415589    6.17986937570110
N         5.79434033191640    6.61224494427654    4.17236181817084
O         5.35558810747918    5.57411525242886    4.71067671020996
O         5.36271633255106    7.70013568899140    4.60336578154212
O         6.59400890070048    6.56304681458710    3.28109960191413
P         2.26605881661544    6.87946900029866    7.88309963138795
C         1.67925445925732    8.57509677218215    8.20526696429634
C         1.42403914207836    9.42410748112266    7.11863774769073
C         1.58391495170512    8.94857563713902    5.70979920282596
H         1.19452725713436    9.68159980078875    5.00780221859286
H         1.05530732558360    8.00543089775632    5.55573046824310
H         2.64828554669757    8.79372634121932    5.47809289925723
C         1.01663033441675   10.72588595457838    7.37660151647168
H         0.81683744058087   11.38857720658480    6.54704366758649
C         0.86511534417152   11.18819742250255    8.67248584218674
H         0.54791661556861   12.20524882360886    8.84702548731557
C         1.12002668831420   10.34605039729436    9.74091951876219
H         1.00213738988549   10.69814419734399   10.75462491962832
C         1.52871044869664    9.04613642181862    9.50702389613161
H         1.72899426112451    8.38813732179158   10.34083723172420
C         0.72832004095881    5.96387031949850    7.54034028395133
C         0.81392105709577    4.63866041283521    7.08803068294911
C         2.13533351324867    3.95445782882811    6.94242868087191
H         2.00258317401371    2.90653808002214    6.68608809241363
H         2.70730865359516    4.01577121839945    7.86962189631903
H         2.73047312638256    4.42435808300560    6.14540487380037
C        -0.36159716606113    3.96677092892586    6.78145870630021
H        -0.30819495521833    2.94557612869203    6.43263253098706
C        -1.59557645344275    4.58027376276433    6.91213766689733
H        -2.49527233358105    4.03663809789630    6.66617457266563
C        -1.67333503458990    5.88848634238991    7.35747737974661
H        -2.63202563796819    6.37324248404496    7.46418565863143
C        -0.51519658588272    6.57783895213151    7.66575884229480
H        -0.57448414507219    7.60027925074063    8.01123291805761
C         2.74430710024014    6.29131876045109    9.54014906158785
C         3.99690220179876    6.65722676865809   10.05380992013306
C         4.91406436279874    7.55450979804772    9.28521175408692
H         4.41092052893323    8.48546292375111    9.01788759167233
H         5.24019507792127    7.06427886491021    8.35331218277735
H         5.80051041707245    7.79389679222211    9.86713482977789
C         4.37083180526400    6.17181363143859   11.29929169423727
H         5.33320373433183    6.44835247269111   11.70520022584684
C         3.53558330661321    5.34119952595278   12.02646876220201
H         3.84919188864243    4.97530603823090   12.99246208373940
C         2.30116375866659    4.98180887085964   11.51380163023154
H         1.64338586771056    4.33596689212881   12.07559535501260
C         1.90955350782033    5.45297668544353   10.27432610711454
H         0.94604901743981    5.17275666456935    9.87241151605548

