45
CSD_code = RILFUN | q = 0 | S = 0 | Stoichiometry = C14H20Cl2N2O4PdS2 | MND = 4
Pd        3.55198420905258    1.53723285998855    2.52988277169737
Cl        1.47593468935165    1.86601077211908    3.33652045697781
Cl        4.33527431413032    2.32945647533822    4.47533722958362
S         1.92529017170137    0.00779084351060    1.16348888577182
S         4.07696894651798    1.61822216902006   -0.49597260307845
O         2.66343335048930    3.62779483128437    1.04823734058865
O         5.32376934604388    3.31695626285139    1.37877704230680
O         5.84172995562834    0.78004817364015    2.27780349197733
O         3.94165839874668   -1.24498208613688    2.64623301494607
N         2.81599656935636   -3.38074121970493   -0.13279509467141
N         5.71156637846322   -1.21858625889186   -2.09663209124726
C         2.99360963311455   -0.84457363381988    0.05929130213489
C         3.89875073709396   -0.12953863136846   -0.67357562537917
C         2.45939902306774    2.32184125362838   -1.04127455079174
H         2.71494657627256    2.92093940780387   -1.91571293557949
H         1.81323848509042    1.50371812289026   -1.34938730416818
C         1.78339764017984    3.18148321320801    0.04860476602868
H         1.27776854219604    4.03172985888099   -0.43099866260177
H         1.03991175792756    2.58808921331680    0.58917674437325
C         3.54456801155257    4.67479864033196    0.68639570927318
H         3.04108402639852    5.64595032569728    0.79106914030411
H         3.89463448118217    4.55109785948505   -0.34595212466292
C         4.74667577099909    4.58560408905524    1.62480517851135
H         5.46550197157760    5.38765258681001    1.40509913597190
H         4.41183450284554    4.65864859257688    2.66976264892794
C         6.52985627229880    3.05230746028226    2.05635113340835
H         6.40226422345993    3.19446648911703    3.13822699652591
H         7.33194586715536    3.70934967084043    1.68738758414980
C         6.88200418293600    1.59290152029134    1.77414910815744
H         6.99240441731766    1.43562396062584    0.69130835798104
H         7.82685909619497    1.34639153698025    2.27598446780729
C         6.20084969900028   -0.56264399132878    2.53043143973629
H         7.16674466303346   -0.60266363616257    3.05176468526028
H         6.27375696650946   -1.12572964844949    1.58758128804187
C         5.12103777898217   -1.17355378399632    3.41958189048391
H         5.42167052407100   -2.17568375104613    3.75535291932242
H         4.96770715602532   -0.51661170843738    4.29152190882959
C         2.73946116211916   -1.39344950219330    3.38401160822229
H         2.65803265665142   -0.58799205701311    4.13758077802205
H         2.71544846756431   -2.36932007100771    3.89085490999042
C         1.58474987768099   -1.29467035400499    2.38962711263653
H         0.66645590222966   -0.99330798826412    2.89048513891960
H         1.43875791895172   -2.22593683596287    1.84433215437016
C         4.87886691122291   -0.74564023594612   -1.46225151061482
C         2.91219876761940   -2.23938079583870   -0.05126583847464

