116
CSD_code = RILGAW | q = 0 | S = 0 | Stoichiometry = C48H60N3P2ScSi2 | MND = 5
Sc       12.22990907777199    4.34882835223021    2.90378782375664
P        10.07628244621868    6.24026008400657    3.66112014299006
P         9.79327447483220    3.41679422153691    4.37682857451078
N        11.52530450970286    6.52494102091017    3.03932013170022
N         9.73654398324211    4.68184274269556    3.36945920408186
N        11.32642579242459    2.96320962298012    4.51408856966238
Si       15.56619608539074    3.41283558851459    4.00121061388945
Si       10.92585653465030    3.30011859629263   -0.56915715137367
C        11.98190978214512    7.81198196696312    2.66682341145511
C        11.82948401432418    8.22427680768410    1.33377615366879
C        12.28739799989434    9.47327457693084    0.94495716697866
H        12.15547063629482    9.78478053581003   -0.08155156268114
C        12.90599606522301   10.31804023669017    1.84710313436585
H        13.25312296240663   11.29173128696298    1.53500895559718
C        13.09044255794607    9.89559137007280    3.14907766284491
H        13.59175532991781   10.53978767867884    3.85790576767397
C        12.64383557467252    8.65183763949012    3.57288596585553
C        11.17436862369745    7.32372739701986    0.33421087413618
H        11.53051261383025    6.29705985564353    0.45708381682725
H        11.38543530101293    7.66026314071638   -0.67817241113589
H        10.09306718155418    7.32309773256606    0.47666748355643
C        12.88014973132657    8.23649978638612    4.99322427218179
H        13.72766938884807    8.77818222121986    5.40806069985713
H        13.08111912202708    7.16676104565373    5.04389373595931
H        12.00612811463871    8.45234124377024    5.61022214214223
C         8.77721245343453    7.24303850867075    2.88424714025135
C         8.93478527442388    8.62566243986334    2.85672631369437
H         9.78578413492739    9.07493638316376    3.35051019729751
C         8.01074928743488    9.41167080545570    2.19371912320224
H         8.13682806200649   10.48400406313328    2.16782138719506
C         6.92710607045733    8.82238006919092    1.56065817146070
H         6.20805792449573    9.43776171409210    1.04029992469102
C         6.76397943958800    7.44693247598956    1.59473759224623
H         5.91668313496730    6.99005333958861    1.10459580401391
C         7.68866997465562    6.65636723389321    2.25346954898411
H         7.57477061486217    5.58223529752668    2.28905330785042
C         9.96387049599344    6.62835358483306    5.44568512590942
C         9.02850492386210    7.48681979580194    6.00459114523840
H         8.30148851289713    7.97918027805946    5.37395408190766
C         9.02415298395250    7.69962817833470    7.37227582828222
H         8.29480424300129    8.36650737890623    7.80845739281424
C         9.94952622478829    7.06124720437200    8.18052360292340
H         9.94151315250043    7.23114093632532    9.24689677983980
C        10.88885318413637    6.20779362408294    7.62284983829184
H        11.61608901379413    5.72013554121270    8.25541997545981
C        10.89427736925376    5.99153760058676    6.25793767922404
H        11.62490926948676    5.33316575731845    5.79138471715097
C         8.88012884641288    3.72477711874460    5.93719866395153
C         7.79948872624513    4.59680417047268    5.90985704283401
H         7.55992018065731    5.11038181078408    4.98827667487558
C         7.04613483775974    4.80828717457554    7.04828846863965
H         6.21489155295434    5.49768150286138    7.02428052234629
C         7.35594174802007    4.13302504344111    8.21784448282157
H         6.77105606907948    4.30202033710789    9.10981150513633
C         8.40397752324549    3.22876213583955    8.23804965150224
H         8.63098180788725    2.68198279439157    9.14166097686216
C         9.16028967286344    3.01694106201831    7.09850000375048
H         9.96303077014655    2.29416712161647    7.10523532588048
C         8.65389475834879    2.18482787013114    3.65841112970704
C         8.26495263930288    1.09108245252732    4.42354363681411
H         8.63599321456777    0.98315180031712    5.43368115809761
C         7.41487747852286    0.14093177882299    3.88860015595066
H         7.11781643386453   -0.71118633060392    4.48253881676004
C         6.94474571958747    0.28216258003704    2.59193353895488
H         6.27786743751887   -0.45957528655896    2.17746781940302
C         7.33218720669481    1.37107598890079    1.82863031294662
H         6.96938074374355    1.47915781219269    0.81691820817341
C         8.18978942337602    2.31910707116470    2.35827996669322
H         8.51433953011526    3.16524489225144    1.77289922844723
C        11.74247959550387    1.72301430330641    5.05619432409692
C        12.37634074136508    1.70227819377910    6.30984086871198
C        12.77249324792876    0.49225707608012    6.85594844319308
H        13.24709158594433    0.48268645571938    7.82733634131823
C        12.57637173167054   -0.69541451593408    6.17493967995984
H        12.87527802502195   -1.63383677808571    6.61734085416225
C        12.03382881235861   -0.66196620640468    4.90630635820226
H        11.92728435217952   -1.57609010112304    4.33958155995036
C        11.63053736063105    0.53320227514555    4.32430049845433
C        12.67143604285360    2.98203356364929    7.03345819837284
H        11.75720128099017    3.48685563960077    7.34205347109013
H        13.22265953752897    3.64706516218868    6.36610525484117
H        13.27452090374881    2.78643311595163    7.91742481412617
C        11.16313853502412    0.51022090039207    2.89819833485692
H        11.89037460999557   -0.02880629610388    2.29070887787667
H        11.06322175087645    1.52306512643803    2.49627875292625
H        10.20709996009884   -0.00410229887557    2.80329960350714
C        14.22705104244604    4.75494554565454    3.97697640003412
H        14.63444011314384    5.59993357980400    3.38985729109539
H        14.13452954536702    5.14897224123895    5.00666723896104
C        16.04151011200078    2.81728567311794    5.76482717028875
H        16.13208330443608    3.64078406933106    6.46694495160483
H        16.99563753690965    2.29912409298469    5.75050872893286
H        15.30243783280652    2.12434503574388    6.15336045779042
C        14.98754006252368    1.85713813856434    3.04640941349540
H        13.98132521426399    1.57388131442997    3.34872474987181
H        15.63638030319764    1.00603160283327    3.22848026064376
H        14.97737773201098    2.03768491752542    1.97580940925048
C        17.18416716431853    4.00819201326929    3.16209582702932
H        16.98238991951844    4.37421231158896    2.16009527563650
H        17.91056607936811    3.20606108654589    3.07799744563729
H        17.65016089504974    4.81602526949007    3.71736201302390
C        12.27570422174281    3.57768544186489    0.73226827860892
H        13.00813255333611    4.26810886607417    0.26767487141861
H        12.82451295857967    2.62010865652995    0.79869141192116
C        10.27515432067930    1.49316486968328   -0.54499533855234
H        11.08731400329487    0.78479105274049   -0.67790990926877
H         9.56493342655518    1.32565160868539   -1.34960093031226
H         9.77718291769516    1.24821847849559    0.38752482665462
C        11.56060849137518    3.60126936665546   -2.35886514510989
H        11.95028615802142    4.60900186550527   -2.47361443477897
H        10.77152769396015    3.47130297166204   -3.09356675396157
H        12.36079620952174    2.91303935012519   -2.61413839672089
C         9.41543829950638    4.47811342384923   -0.35253472493916
H         9.39099945547861    4.89943825351039    0.65168984816632
H         8.47488045722706    3.96286936107709   -0.52822282314072
H         9.45901393211291    5.30829606281480   -1.05109079592283

