115
CSD_code = RILGEB | q = 1 | S = 0 | Stoichiometry = C58H40AgF12P4(1+) | MND = 4
Ag        7.00290255701780   18.79021864963227   13.34470156703327
P         7.34833239308514   20.30589349982467   15.31626656356407
P         7.33459221610573   17.27932499461528   11.36664887955115
P         5.59614053108255   16.72691238224138   14.11100673044568
P         5.57171429911221   20.84257434187204   12.59336857256439
F         5.50981468431682   15.76246703562708    9.08683892754669
F         4.28702300800017   17.46212052295213    9.62454030905335
F         5.54789729542735   21.82083281558540   17.61479735144900
F         3.15798881423756   14.82391203212486   12.92928671015691
F         2.63668425582332   16.80464252389583   12.24004574813757
F         3.13960415605177   22.73635639734643   13.80186153770794
F         2.63657538023764   20.75590850657639   14.50560904027182
F         4.17318245542712   23.46342558922874   16.09239845807572
F         4.32450418442154   20.11444472134869   17.10025954876863
F         2.59916171187615   22.13867908150412   16.78597504667873
F         2.57382756178668   15.43120703606633    9.95497298959283
F         4.16152511066269   14.10910659835869   10.62221717964041
C         8.38446453681698   21.79210704216435   15.21114804081622
C         5.67410396627406   20.99831839774931   15.36252901347281
C         8.28105433369493   20.36502444721173   17.98429715169461
H         8.79853352798493   21.28073969034419   17.73757327873132
C         4.83380798058656   16.31852260336231   10.10953421751030
C         7.49081310729099   17.88485728493644    9.66302222834904
C         7.60266101678474   18.92128150545727    7.10164904158475
H         7.64047456795159   19.31867599136422    6.09915150701417
C         8.38035731341773   15.79880068094310   11.45708507228632
C         7.96398380934838   23.05053705474841   15.63018295214525
H         6.97122271097938   23.19713370368330   16.02869689230456
C         8.23699586043860   17.23184627478882    8.68786457324611
H         8.76454693773084   16.31986440606776    8.92700679705560
C         7.52914797468259   19.70423334080775   17.01883250983182
C         4.86002304884609   21.25834529452940   16.60357938850510
C         9.66769736984392   21.61906425744533   14.69809508576301
H         9.97672668362961   20.63519612892816   14.36416624225426
C         6.72629504863252   15.32323320765584   14.34790911312434
C         3.57154772710126   15.83103346952303   12.13657613872498
C         4.95595180851732   16.33083941526233   12.46304739700325
C         6.87327240511795   18.51415125991345   17.33149115519642
H         6.29497031689416   17.99855295076819   16.56862306742510
C         6.87170499724277   19.58089862963019    8.07814781908213
H         6.33989082095500   20.48976823641940    7.84148011170337
C         8.28570763743283   17.75517016665280    7.40816395026876
H         8.85549962640171   17.24625878622748    6.64599830049635
C         5.66369210683131   16.57760772362363   11.34019537064120
C         7.98218335190505   15.58711827190379   14.88443513433117
H         8.25054745508738   16.60921016971627   15.14208690548882
C         4.95053133279135   21.23905309749167   14.24855452474687
C         6.94135552656677   18.00641763217319   18.61365228306935
H         6.41953537749438   17.09380226472307   18.85800294924055
C         6.69287605450198   22.25083362709571   12.34107394579486
C         3.71178530126586   15.38516264945922   10.65100085098942
C         6.82221338400654   19.07035717820068    9.36002297993968
H         6.24850127667808   19.58009888512045   10.13024248512328
C         8.34825025325457   19.84460554959757   19.26432458645491
H         8.92237642029296   20.35954663942164   20.01914863222499
C         4.17422055530515   16.42712951578844   15.19406786489303
C        10.11446913675773   23.94642689860002   15.04003221281880
H        10.78782850845165   24.78724582467642   14.97853475224815
C         3.56848904832867   21.73408546822519   14.59229056680675
C        10.12263686880044   13.65274787768412   11.60615284079531
H        10.80065779795195   12.81511259411008   11.65931324840078
C         8.52372283726191   13.25841216377210   14.74275153286345
H         9.22289474952829   12.45113834302175   14.89670207300795
C         8.83430497728151   24.12211012284120   15.53972356073018
H         8.50960237570760   25.09748496479422   15.86752562153528
C         7.27431510251257   12.99512871291621   14.20290568131298
H         7.00116581573237   11.98547349326084   13.93741887636554
C         6.36972947878397   14.02160217707540   14.00365208309976
H         5.39392254928967   13.81348062517890   13.58815023607920
C         9.66685912533077   15.97658811189455   11.96016410248520
H         9.97359712595135   16.96081643676911   12.29518107168132
C         3.72741481245505   22.18579475351981   16.07420689677510
C         3.18886145420945   17.41337932381791   15.18832156056220
H         3.29109090556313   18.27342472097783   14.53781939071903
C         8.83946033385327   13.47236954379077   11.11595458170988
H         8.51717422576910   12.49654159507166   10.78707895434350
C        10.53770352972017   14.90609589826432   12.02755457281034
H        11.53727779991794   15.04681633304970   12.40944707610913
C         4.13567517119656   21.13550668837175   11.52717920470784
C         6.33367950597659   23.55162126520851   12.68583894490216
H         5.36103644243486   23.75616523776544   13.11043265904487
C         7.67800981437547   18.67368223666862   19.58061840656497
H         7.73030936503733   18.27855621769931   20.58336236184831
C         8.47670615596932   24.32314233324835   11.92386315825810
H         9.17061672444155   25.13327792451066   11.76137462822106
C         8.87777301486242   14.55321349168783   15.08540693918518
H         9.85042680161283   14.75612268628598   15.50676141823947
C         7.96301486766997   14.53981316116587   11.03648041075449
H         6.96790899620292   14.38983395005877   10.64510737303640
C        10.53246527796532   22.69370742341203   14.61962596216408
H        11.52957529048588   22.55667772995111   14.23013450521393
C         1.97004665204604   16.19094364827427   16.84476402199801
H         1.10721397325106   16.09126077974260   17.48494519190221
C         7.23146894336252   24.58182118982041   12.47544342677770
H         6.95629927450058   25.59075068016502   12.74159518739705
C         2.08224383615183   17.28737270365288   16.00396590892410
H         1.31681648428643   18.04723944198903   15.98672679133243
C         2.96567355949754   15.22721563805766   16.87442500756603
H         2.87827654296623   14.38015123497316   17.53787735877344
C         4.07600137705969   15.34138071190635   16.05725179281816
H         4.85519749496219   14.59322291587165   16.08620615587824
C         4.02594977380764   22.21653863421346   10.65946831545805
H         4.80395413081013   22.96522716534927   10.61710241886120
C         1.91189728056291   21.36036686053036    9.90140075765512
H         1.04149234223049   21.45552074393463    9.27082739559919
C         3.15174306478846   20.14809953728811   11.54973367936869
H         3.26267839431660   19.29161602315516   12.20340812693289
C         7.94457831113238   21.99165065165795   11.79265274080027
H         8.21525409855975   20.97024384080589   11.53443059041081
C         8.83330728062869   23.02925619093446   11.58047738505453
H         9.80261393545396   22.82986647882661   11.14980471198370
C         2.03546074192874   20.26844511278334   10.74646464749230
H         1.27136284333992   19.50763872029315   10.77653281872110
C         2.90587071489041   22.32512190479294    9.85494955266837
H         2.80952881712087   23.16842870143597    9.18802383160507

