37
CSD_code = RILGOL | q = 0 | S = 0 | Stoichiometry = C17H10AuCl2F6P | MND = 2
C         7.80660534801605    1.27431414975945    8.89741466971135
C         7.07753425024007    2.12068188233948    9.64615477375403
C         7.38192552065110    1.93090025364791   11.10800441079779
C         8.73477345985719    1.14990316079265   11.09349450013166
C         8.73192461472942    0.40702110132280    9.71983092308698
C         6.84047166478418    4.35742097810356    8.00546689801863
C         8.03658699193951    4.83458949811893    8.54037049015760
H         8.37110905693185    4.49762396611126    9.51238328078660
C         8.78685425823300    5.74284521110366    7.81737261340388
H         9.71500909048057    6.11300681991693    8.22565848409889
C         8.35165830144318    6.17561660036853    6.57337330937281
H         8.94513932499729    6.88275881619294    6.01406170575103
C         7.16152385253656    5.70251152610898    6.04462998085456
H         6.82564990788673    6.03873222935240    5.07563907726424
C         6.40403103652933    4.79037590689195    6.75764592266601
H         5.47751249117233    4.40205370718327    6.35457925621236
C         5.12875119660883    4.04025322540092   10.33904262815908
C         4.24678062810916    3.30710998901138   11.13184924296093
H         4.01561157163545    2.28249701134607   10.86775394726413
C         3.68348914969082    3.89251816541726   12.24888285525590
H         3.01144337281807    3.32336403582168   12.87263144622865
C         3.97877543521558    5.21102694421713   12.56041989859516
H         3.53587923010942    5.66874763632547   13.43194503483684
C         4.83183760801260    5.94684964018631   11.75408012164481
H         5.05017304319271    6.97629265724083   11.99511535602247
C         5.40958828942088    5.36863041806967   10.63782222051890
H         6.07343324900200    5.94107847972649   10.00577604623738
F         7.49384125833540    3.08888138513216   11.78901402880157
F         6.43067696393778    1.21226974525474   11.74348946947836
F         9.74815115161541    2.04234998729505   11.10636960576406
F         8.89988648961483    0.34090825129672   12.14311249561387
F         9.96855831516990    0.29028957300739    9.20724179579157
F         8.25684975329938   -0.84897045338812    9.86586382589646
Cl        7.68795050987419    1.16047210098373    7.22163486184117
P         5.80629274151688    3.17631414652964    8.90306372975693
Au        4.35959367273911    1.98527263809531    7.66339629389468
Cl        2.90792719967879    0.88308861569255    6.33491479934784

