19
CSD_code = RILHEZ | q = 0 | S = 0 | Stoichiometry = C6H6Cl2N2PdS2 | MND = 4
Pd        6.01605319902524   -0.00005809538632    5.20571326314107
S         7.53821030724819    0.60632946568429    3.56579033617187
Cl        7.45102662787359    0.69729812235685    6.76025811278376
N         7.68523043042885    1.33306042950007   -0.01615212215790
C         6.58127146664551    0.37924582325243    2.07605808920617
C         7.17329936494478    0.88050257268560    0.90518159492302
C         7.67900413809942    2.41341779801588    3.67219897254854
H         8.26837672253823    2.60025095090319    4.56781362681199
H         6.68804289434180    2.85299359223446    3.77998303076709
H         8.18692768157211    2.78955701510683    2.78815071665981
C         5.44983194908244   -0.37927611239493    2.07616613638500
S         4.49306916485738   -0.60625828410172    3.56604217600667
Cl        4.57983920186283   -0.69733877824904    6.75945312764407
C         4.35185864915206   -2.41334633165724    3.67213826033255
H         3.76250543059674   -2.60013756493138    4.56778029522842
H         5.34274529489163   -2.85310195861536    3.77981126454589
H         3.84381657358990   -2.78930296729151    2.78807106235517
C         4.85741797134561   -0.88027447049394    0.90541254709629
N         4.34597293190458   -1.33356120661834   -0.01587049045010

