96
CSD_code = RILHOL | q = 0 | S = 0 | Stoichiometry = C34H54N5Si2Y | MND = 10
Y         1.40417229404806    6.99478614739969   12.33523498695633
Si        0.69451534415945    7.87542168076565   15.92087985391042
N         3.17895975912718    4.06402854816230   15.90845849660241
C         1.99422261615484    4.91238320820530   16.01551539295514
H         2.15660677801734    5.68797313709307   16.78556537540327
Si        2.79109765773106    3.60276391306759   13.04009018898199
N         1.27662336233427    6.84851040602962   14.66516444296663
C         0.73450886555325    4.17470972183468   16.40155272507480
C         0.43718630081673    4.00825890531889   17.75175469753175
H         1.10093415000495    4.41979584215458   18.49994934727682
N         2.11791704472005    5.11285581182007   13.53923574653125
N         3.78931378515202    7.51508859785202   10.30504373866535
C        -0.69414299467883    3.32201965263627   18.15143413585646
H        -0.90684181554139    3.20132945993350   19.20380936870678
N        -1.31106849096978    8.43072717528991   11.57688154212477
C        -1.55191302011540    2.79262409616719   17.20226222423986
H        -2.43322703593981    2.24958050742476   17.51052572794938
C        -1.27715767516019    2.97419476918362   15.85866247534111
H        -1.94469360005127    2.57308174992170   15.11203932097800
C        -0.14877108078703    3.66988671625266   15.45867025894820
H         0.04069977539469    3.82802520627941   14.40905775389192
C         3.25281813187626    2.98281990895421   16.86810636855503
H         4.13185259266092    2.38108231721802   16.63781446522678
H         2.37191195836451    2.34963867122354   16.79101683652513
H         3.34069501799565    3.33665405239249   17.90695340115777
C         4.35699577685170    4.90233872035878   16.00360135184435
H         5.24726749756110    4.29959933000417   15.83976604933800
H         4.44016877041387    5.38631738680216   16.99088313000479
H         4.30594733110046    5.67799795739511   15.24252476364359
C         4.67457297281745    3.31548849371059   13.20593159133497
H         5.22836606700982    4.24586644686995   13.24712852082390
H         5.03195877972560    2.75896080026531   12.34509372377446
H         4.91548091460778    2.73929091858257   14.09067134421663
C         1.89785631411068    1.98090054073765   13.51616049178418
H         0.89306632415025    1.94526619058258   13.10665218804756
H         1.82306792326981    1.85375521840053   14.58887334092187
H         2.44221708498301    1.13011562481733   13.11876690983747
C         2.50314571667104    3.84068165123198   11.14675136406927
H         1.45598084700218    4.07208913134500   10.93597344507251
H         2.75689948592437    2.94951093371526   10.58068325064461
H         3.12093831736395    4.65563290472508   10.76604184612620
C        -0.80731684574804    7.17979160080348   16.88106890176092
H        -1.43138764296691    6.57046705952004   16.23444812758281
H        -1.42190551345073    7.98067816509474   17.27927435367015
H        -0.50207349822001    6.55387147695840   17.71334940552940
C         0.13423879841456    9.39165315950305   14.89979668127746
H        -0.59627386035508    9.10663057756651   14.14419142504738
H         0.98401607707632    9.84773503540759   14.39446475518560
H        -0.31822482984896   10.15188260446488   15.52812661982659
C         2.04807084289377    8.43240475402600   17.15913301023674
H         3.01681717497053    8.48678527951771   16.67008501013617
H         2.13795580693117    7.75439132718053   18.00287890796418
H         1.82533686032167    9.41593271550733   17.56000623937923
C         1.80103347435647    5.63862879453737   14.69856442828743
C         3.12038241513976    8.26249334508526   11.38075876959916
H         2.85091178823901    9.28121073829088   11.00842714326697
C         3.96729932334832    8.39953734172704   12.59104290656981
C         3.84265111430819    9.51647351095011   13.43109564238281
H         3.14415037276808   10.30330113157635   13.16603706839944
C         4.60320730135205    9.63763997058110   14.57697843866215
H         4.48483963265563   10.50740843933021   15.20785101969590
C         5.53035142866182    8.66249807615056   14.90957085049064
H         6.13401046785666    8.76371693219177   15.79929616921078
C         5.68070948768434    7.55882626679973   14.08252998478878
H         6.41492069683190    6.80345819819530   14.32724607191192
C         4.90918204770707    7.42024316498652   12.94654987790906
C         4.97985422784001    8.21347877694612    9.83607956389360
H         4.73375053528769    9.17276755507635    9.35352031392207
H         5.50720400770166    7.58777698891114    9.11587825029520
H         5.64180175263017    8.40999335744722   10.67632640443545
C         2.91361215765097    7.27275309099835    9.17247196835392
H         2.55733531324922    8.20961737477623    8.70822613369555
H         2.04304609976992    6.68144923422721    9.48599209516230
H         3.46133087873443    6.70687091151752    8.41758876036925
C        -0.60946826636816    7.19952624740098   11.17230077111890
H        -0.56587768074804    7.15753155235446   10.05607704437775
C        -1.29977387348367    5.98030410802604   11.66726693079064
C        -1.96554644065167    5.96598368600422   12.90405403724131
C        -2.62090249241806    4.83417320572250   13.34237381176026
H        -3.14104839564760    4.85254923435349   14.28989737055783
C        -2.62060107323214    3.67716982056161   12.57632251337968
H        -3.14409072110315    2.79497974848867   12.91468279531775
C        -1.95244386701776    3.66570814134022   11.36295022127720
H        -1.94739259715055    2.77004158782091   10.75774503532831
C        -1.31192204609885    4.80165677304722   10.90800425764648
H        -0.82324179390234    4.78947324257669    9.93969221038635
C        -0.59480114642426    9.63078839242779   11.18339726608642
H        -0.45110477092998    9.69568723783632   10.09014420369942
H         0.38695145043542    9.66089517994571   11.67268115069618
H        -1.16580972286843   10.50345018118975   11.50327021105732
C        -2.65563947535442    8.48131228661006   11.01624261968561
H        -2.64392837653563    8.54315616049512    9.91641270226911
H        -3.17887390709749    9.35388722185813   11.40755587466634
H        -3.20503695823070    7.58849481974072   11.30609988955958
H        -1.96865894754951    6.86539690326173   13.50626521050141
H         5.02332336423136    6.55391486091503   12.30842638974004

