129
CSD_code = RILJED | q = 0 | S = 0 | Stoichiometry = C52H69N6ScSi | MND = 5
Sc        4.79446929230131    3.59327606161276    3.78239947071678
Si        2.67657187141417    1.26337201085891    5.06586003989676
H         3.93103887166113    0.51606109542675    5.27177562257398
H         2.18510960496470    1.62425616974842    6.41894334275561
N         6.21651873044666    2.47884255234798    4.96392367281918
N         4.67081200127307    4.90110206015796    5.49475246737164
N         5.39247332886518    8.52219883551655    5.93248763932785
N         6.15618214237055    3.84315990735850    1.95928490210369
N         4.36007061532338    5.19835842128749    2.26994355315661
N         3.00110941233146    2.54706522282131    3.98404464016564
C         6.43641448345548    1.05490652899769    6.96898770826569
H         6.90079367604527    0.34354711583945    6.29125717244247
H         5.64912949704670    0.55588098054148    7.52922745620120
H         7.19321604055766    1.39267635868707    7.67653000771586
C         5.85204496818504    2.23358408352719    6.21841777721144
C         5.00132391187722    3.04510729531641    6.96916868676149
H         4.77145003447833    2.66974288292987    7.95550153414112
C         4.55089246319696    4.34367989999976    6.68824021667515
C         3.96812573732027    5.09197588975373    7.86892208734215
H         4.54315699471332    5.99076701294814    8.08440224835087
H         3.97178177238089    4.46126396439001    8.75266743778025
H         2.93925370896164    5.38507822324689    7.66636543331990
C         4.38870796452045    6.32962284171721    5.37693336081824
H         3.66200259164878    6.67694580368219    6.11658289120296
H         3.98139236061374    6.52286804397149    4.38055401075247
C         5.67810180843044    7.14644949823697    5.56734885091848
H         6.24722689520129    6.69676187926408    6.38687963142889
H         6.29414628430864    7.07804439360488    4.65095582636328
C         4.78375849210007    9.26364580773376    4.84603018136336
H         5.43218383149169    9.31833417544418    3.95829877240665
H         4.57350586370955   10.27648798460496    5.18604604704630
H         3.84528431410634    8.79649693040898    4.55742892081780
C         6.58411855091411    9.19556796422648    6.40805280462213
H         7.37139799912695    9.26299711583816    5.64084038871073
H         6.98262126889192    8.65954395668712    7.26853135000710
H         6.31954821578345   10.20405120651752    6.72193371037379
C         7.42662363032866    1.87135146789753    4.53181722219261
C         8.64025931396622    2.38313299997343    5.03767942721003
C         9.83456394873487    1.80513058345723    4.63678270611476
H        10.77045987546897    2.19248823953211    5.00683796262662
C         9.84955347094265    0.72949029422069    3.76759157677658
H        10.78786735056972    0.27870652334848    3.48044546929050
C         8.66149506569021    0.24127753658621    3.26422030932980
H         8.68337717027900   -0.59518406391614    2.58318684773616
C         7.44230855952097    0.80097392269931    3.62479234667944
C         6.16310989642835    0.22433384517132    3.06126470062951
H         5.33387874165307    0.91360640995035    3.30744261641336
C         6.22519997662754    0.07807217655429    1.53933517185958
H         6.47436440064716    1.02734899000201    1.07237159731515
H         5.26072396458959   -0.25595639515025    1.16580901392737
H         6.97086176939486   -0.65586212880253    1.24307556937689
C         5.86655523185551   -1.13782503956300    3.69637117734714
H         6.68067726530824   -1.83344233778515    3.50087662812916
H         4.94939949410893   -1.54966681452896    3.28133116123221
H         5.74224430326596   -1.04681934880378    4.77276029002564
C         8.63697212743809    3.60660318365951    5.93178180240158
H         7.72703900004718    3.59884211252985    6.53814021499336
C         9.82840780827412    3.67099168747430    6.88736435719608
H         9.95533722696756    2.72584082205446    7.41071144097469
H         9.66185859563824    4.45229812525000    7.62638666987385
H        10.74975556438796    3.90524373965247    6.35970992732608
C         8.58870835916979    4.86082801540216    5.05096414340487
H         9.45378359026345    4.89624356220041    4.39054849169263
H         8.59125007734317    5.75612100070317    5.66964773859522
H         7.67692488223316    4.85529710708241    4.44535515070715
C         5.41891657850241    4.85981962414146    1.56772283808225
H         5.68826062665921    5.42223753001759    0.66203209730741
C         3.71170210011878    6.39304459207159    1.93613133530798
C         4.42226617861460    7.55240337204352    1.61223355173516
H         5.50387233783952    7.53333112630467    1.61247572995929
C         3.75261219862907    8.72666862837011    1.32403019421118
H         4.31650020645337    9.61569259215406    1.07965068301618
C         2.36926477863567    8.77129753253404    1.35481436296740
H         1.85102553289610    9.69211333198388    1.13351817703080
C         1.65744277731370    7.62569001396561    1.67399373416576
H         0.57774229785550    7.64729406428640    1.69627230871221
C         2.31710040042315    6.44728216979050    1.96115340420166
H         1.76781971485910    5.54999728469096    2.19778642238212
C         7.18751023102866    3.44757748154265    1.09244111307792
C         8.45524263042091    3.16672319009455    1.60023710767256
H         8.63153097806531    3.28048748445585    2.65629792368099
C         9.47213158330004    2.75268685863515    0.76309926898436
H        10.44544896871611    2.53752849765539    1.17926421523546
C         9.25236978530784    2.61693730902526   -0.59768677114297
H        10.04794849758855    2.28908734381928   -1.24981644980588
C         8.00167570238714    2.90757714299421   -1.11521028597766
H         7.81780502432853    2.80743409646127   -2.17543725781323
C         6.97831454236124    3.32227148876783   -0.28386587172550
H         6.00090815315419    3.52745468441257   -0.69628864535208
C         1.90768464810790    3.03816070392704    3.24991991641641
C         0.88897135993274    3.81632433445783    3.84702870996152
C        -0.24580810453955    4.14254815190502    3.11817945035646
H        -1.03386310334808    4.71163021830522    3.58973748725088
C        -0.39941052477733    3.74479631620338    1.80409412751692
H        -1.29885547017487    3.98965916919505    1.25894184167914
C         0.62036214840231    3.03940797532408    1.19447059578617
H         0.50754214919086    2.74081527199220    0.16293644224007
C         1.76801493655111    2.68941471183244    1.88728858215300
C         2.84721083719679    1.90398809938407    1.17632409894158
H         3.75299247893234    1.91407460129672    1.81321600098695
C         2.39792170477901    0.45460484618007    0.97452232096364
H         2.25519457877258   -0.03803538044118    1.93272033273894
H         3.13595197016290   -0.10053914730207    0.39799198675913
H         1.45310475209418    0.42542069737904    0.43511451501325
C         3.21810976200112    2.53641525553687   -0.16724838946677
H         2.40720740203816    2.44336370674473   -0.88587883786470
H         4.09227148114018    2.03645752951209   -0.58092815350961
H         3.44296749457735    3.59391177307966   -0.03715807937871
C         1.01172593830665    4.32816049198122    5.26406938437115
H         2.01110593497328    4.06237613907181    5.62772580973845
C        -0.03701849883277    3.69381708086004    6.18158481655428
H         0.09579257368235    4.04277931269086    7.20428096080162
H         0.04669711252523    2.61050409165241    6.17435251335906
H        -1.04061248666891    3.96212336971199    5.85746648597516
C         0.86935676218334    5.85408828404903    5.30015976869418
H         1.56739863317036    6.32169553874969    4.61005601807631
H         1.06262823849016    6.22939487323343    6.30385677751900
H        -0.13760615533533    6.15734822721581    5.02318556653279
C         1.42176268528785    0.01344753068384    4.39168347907805
C         0.15790326979346    0.39344233337844    3.95277598471104
H        -0.13013096052309    1.43237878502699    3.99776719805290
C        -0.73767236691110   -0.53103385403016    3.44516461079145
H        -1.71122857845323   -0.20593852867811    3.10562910847772
C        -0.38926058060124   -1.86860101804092    3.37213451942264
H        -1.08629209761049   -2.59330288461378    2.97574640521476
C         0.85966952334810   -2.27105628499030    3.81391720443876
H         1.14019894492724   -3.31432399556019    3.76504067756098
C         1.74858292725595   -1.33732932154436    4.31502352438349
H         2.72192059337550   -1.65951283749077    4.65733545653519

