85
CSD_code = RILJUT | q = 0 | S = 0 | Stoichiometry = C34H43O4P3Pd | MND = 4
C         1.59920440454655    7.60554259652293    6.23983241761587
C         1.76640054184889    6.23713247483503    6.08941733001987
H         2.70560942052841    5.77106632932901    6.35338904971261
C         0.72304365011322    5.47162061555142    5.59627263351413
H         0.85096770828899    4.40569406654953    5.47632291746209
C        -0.47911951487007    6.06789378212451    5.25300249869829
H        -1.28824013973130    5.46441741985629    4.86909348384883
C        -0.64271420395235    7.43777302896693    5.39189445978571
H        -1.57714163197492    7.90317608264712    5.11585867239021
C         0.39778943965738    8.20573936914226    5.87893205844386
H         0.30274438840536    9.27871319339568    5.98062544227234
C         2.40206520938052    9.34302409381847    8.44598922313616
C         1.38912517191574    8.70495929562388    9.14983695600441
H         0.74646342527369    8.00116832995048    8.63832322631973
C         1.19709736441512    8.96792875887404   10.49411583819449
H         0.39581248443848    8.48392253786517   11.03244301889589
C         2.06253236061801    9.82687131137122   11.14974231665206
H         1.95138690966209   10.00118314891174   12.21011469947419
C         3.06246352539069   10.47820374083700   10.44875234736179
H         3.72712991374348   11.13765218772959   10.98378453104359
C         3.22888405204070   10.27495674040337    9.08133527293804
C         5.78763182693465   11.59867727753869    9.24062873429604
H         5.46698942028631   12.01045779055682   10.20151650105058
C         6.45226161843930   10.24148004045291    9.44958381294422
H         6.72572984992252    9.82500962239208    8.47821679479331
H         5.77731792197434    9.54089876294471    9.93993987123579
H         7.35250621727889   10.33824514617216   10.05453957480968
C         6.75627334685179   12.56637699817035    8.56972406943270
H         7.68134023400268   12.64625942442980    9.13922184739523
H         6.31627586695094   13.55917998398582    8.48467040346532
H         6.99840720806293   12.19424524713019    7.56119008023173
C         3.31422922538433   12.89709337074946    8.16555066982071
H         3.83087350885215   13.60244014617053    7.50422460479170
C         1.96105607207641   12.57679481922653    7.53054963753865
H         1.32772871151152   12.01987884711331    8.22128658738923
H         2.09978085452671   11.98621085796276    6.62429115099453
H         1.45457494001326   13.49650012158656    7.24865432250058
C         3.13399264846883   13.55728575283946    9.52672911763450
H         2.58586410950561   14.48802986755693    9.38784590324789
H         4.08654782206677   13.79803460997830    9.99419225708928
H         2.55387216969084   12.92884566376656   10.19865139934272
C         5.44832167732389   13.27889556475867    5.32110258899738
H         5.76739347677248   14.07061280213853    5.98670353684858
C         4.09015682155815   13.23024984557437    4.78462643416028
C         6.25489080928442   12.53954246083789    4.44377051562118
H         7.32843246162388   12.61508413856854    4.31647143614111
C         5.38915819959298   12.03139979885136    3.38938565462585
C         4.83375559862164    7.94276782250608    4.17785083333293
H         3.93442900982283    7.69268064690536    4.76398768106855
C         4.38123292721031    8.75702543498977    2.97513490446973
H         5.21791391583801    9.08649238832611    2.36514993247469
H         3.84323168519468    9.64118839906835    3.31884039906283
H         3.70753855883666    8.16725481080990    2.35482992716960
C         5.51629219023992    6.63351473092335    3.79760337428444
H         4.80944906588337    6.00262530149387    3.26026610585126
H         5.84960212691539    6.09328283296237    4.68369489474263
H         6.37101246260965    6.80194946607299    3.14888320403461
C         7.64319014924301    8.78010069943198    4.89562627022069
H         7.94697294890765    7.73127055936312    4.97814427231016
C         8.43562436339238    9.64669339529980    5.87531591412391
H         9.48481021419598    9.69760884666119    5.58784047074812
H         8.37717657509928    9.26497172267089    6.89377026547532
H         8.02318899683662   10.66540550998824    5.86831371619064
C         7.88950716406616    9.26195119147695    3.46754539288564
H         7.40060759684379   10.21776776486324    3.28735907582157
H         7.51465374959824    8.55341965243647    2.73419995426970
H         8.95853533579968    9.38457926056643    3.29583376119840
C         5.61904608548208    7.86341438897499    6.77685054927451
C         6.62817445915080    7.08823888820164    7.34305891311326
H         7.63664012398758    7.15249806756853    6.96717487307664
C         6.36677225454731    6.21827585678249    8.38588615707241
H         7.16815710778057    5.62675591612987    8.80347797699016
C         5.08118659179373    6.09981892718465    8.88529364863338
H         4.86710099093575    5.41403236689163    9.69126501257404
C         4.07236963888214    6.87516962995605    8.34671617198875
H         3.06907938266580    6.79831043120757    8.74154062300776
C         4.32732381444920    7.75827940525601    7.30263778090530
O         3.05005277402821    9.84659090799283    5.78635852946630
O         4.08712040487217   12.41680636388815    3.66608135537886
O         3.10259429420700   13.83206160838607    5.12748950853256
O         5.67454765705440   11.45930870956775    2.36400038751645
P         2.88655044502872    8.77401695658901    6.77827467810050
P         4.34996638886714   11.33511191264446    8.07872969362718
P         5.84669270367704    8.98848828684027    5.35772897823258
Pd        5.34428874873993   11.23320287336366    5.84109891259525

