77
CSD_code = RILJAZ | q = 1 | S = 0 | Stoichiometry = C30H42OP3Pd(1+) | MND = 4
C         4.16521657197819    6.88112292595449    3.53382196208525
C         5.03529290027726    5.88403248788636    3.11492181297525
H         4.73525605684842    5.19133968416959    2.34253697545826
C         6.30233727912218    5.78576438757364    3.66295525198269
H         6.97898364350113    5.01696091458503    3.32342424909381
C         6.69134488889809    6.66920936977885    4.65609158215535
H         7.66825116838020    6.58039784937852    5.10579340436395
C         5.83601192525861    7.67641765098544    5.06747419952030
H         6.16575996328447    8.35813860608302    5.83603785691815
C         4.56947522127728    7.80974043093240    4.50485061600350
C         2.59494127122759    8.80425158042497    6.50693925489723
H         2.25242274501144    9.77818367619818    6.88242902425705
C         1.36372048385810    7.95304640701129    6.19785504730733
H         1.65247112242212    6.93380428206327    5.94683456638801
H         0.79667844825838    8.37425813517030    5.35189663377085
H         0.70347187134802    7.91335020442840    7.06209019357784
C         3.50102073465541    8.14616365721532    7.54025127594760
H         2.94025202613641    7.96011618868422    8.45402918717865
H         4.34573522185303    8.78450956669862    7.79018475986388
H         3.87907852500890    7.19291142743510    7.17397785241585
C         4.63691074770711   10.58738635325616    5.30427860772749
H         5.34727360873453   10.25034709119816    6.06679599370424
C         3.89403198272591   11.81101472317915    5.83294919416784
H         4.58059731609470   12.65216846319040    5.90312656901751
H         3.48581878444940   11.63302451698876    6.82516461925353
H         3.08211800871649   12.09131312661253    5.16376012401717
C         5.37732577300673   10.90994897483516    4.00778711893551
H         4.65479374667347   11.17159350437297    3.23261692718160
H         5.96536268794941   10.05873216213362    3.66500119328630
H         6.04765667154745   11.75444007326727    4.15024102643454
C         1.59567196252082   11.19423581016142    3.22685731800030
C         0.51783333835152   11.41606323763246    4.08183276088183
H         0.04461133127405   10.57952762056111    4.60439991714666
C         0.02877623000457   12.69587343344049    4.29177432114251
H        -0.80680030759084   12.84987926492083    4.95826295363449
C         0.61475574597431   13.77242571220548    3.64716056242331
H         0.23741506273839   14.77028094673190    3.80826579973216
C         1.68694919297975   13.56269836805558    2.79975863945648
H         2.15165091082997   14.39793158024933    2.29715157078905
C         2.17710256210959   12.28045925059573    2.58830208313523
H         3.02471484378402   12.15345334815094    1.92516746495606
C        -0.62811734669576    9.21340522694592    0.74685239512295
H        -0.92125365507165    8.75546053734059   -0.20418559052214
C        -1.26559518478888    8.45207207014578    1.91133410890142
H        -0.86517825313036    8.82757468097454    2.86334322785705
H        -1.04783629042195    7.38476018537513    1.84327847753481
H        -2.34508409066431    8.58321676223683    1.91871947007760
C        -1.00852329819211   10.68961786778305    0.76315113818273
H        -2.09076739830232   10.79519227655072    0.72788996884847
H        -0.58846945910141   11.21592837831398   -0.09141459470399
H        -0.64814885098776   11.16582935455457    1.67504201418449
C         2.18905002837582   10.06919361183394   -0.12616571405841
H         1.94056427497250   11.09502549238987    0.17872093169407
C         3.64925772740004    9.77491353878562    0.23390305359529
H         3.94452430522687    8.79752838084670   -0.14920500826494
H         3.78682602299004    9.77256915871934    1.33087196270602
H         4.31226720560009   10.52195766898543   -0.19729128962278
C         1.93309829180419    9.92383581250332   -1.62023102766542
H         2.46827649995679   10.70852545114531   -2.15203959390960
H         0.87524838945358   10.02320560765608   -1.85522467180957
H         2.29429747730720    8.96764242640837   -1.99113679800865
C         1.52959549417530    7.30880311744721    0.46400663589066
C         1.14223629215709    6.88191172890024   -0.80292931777230
H         0.59713895783605    7.54713576310822   -1.45458207055745
C         1.42359095452519    5.59569089370564   -1.22814990382265
H         1.12003843269518    5.27639563600972   -2.21312944451468
C         2.07453706074215    4.71193277558668   -0.38283603620972
H         2.28503515620400    3.70498468298153   -0.70855201574574
C         2.42706504026500    5.11174315636067    0.89370185628964
H         2.88697961224582    4.39129451485397    1.55708116494350
C         2.17859935052869    6.41205029478734    1.32065316606050
O         1.79938799485741    5.68915622375551    3.87388315942075
H         2.12400232815768    4.81516873212910    3.62705013702047
P         2.39512378115923    6.94388157249724    3.05838949219075
P         3.45418962394655    9.21369776464815    4.91312183521793
P         1.18578580453587    9.01638396307250    1.02623322037860
Pd        2.01026545109586    9.22529769628378    3.13639518986807

