42
CSD_code = RILKII | q = 0 | S = 0 | Stoichiometry = C15H22IN3Pd | MND = 4
I        -7.20996289958127   -3.04687560804576  -11.17485485025579
Pd       -7.22216928053917   -1.38947096283188  -13.22870397741549
N        -6.56379480743269    0.66981013785294  -11.26284254448221
N        -8.69621851080410    0.59504649165039  -11.53983031190298
N        -6.76069140277277   -2.85009721421566  -14.72172684607965
C        -7.53741746099353    0.07650597885383  -11.97232615645171
C        -5.17291525922131    0.31752542309271  -11.37395329573125
H        -5.06600299459903   -0.37235788309241  -12.23049446083458
H        -4.83770880972638   -0.18951392293786  -10.46566694755405
H        -4.56062780621545    1.20510146620105  -11.54128437578771
C        -7.11047408967589    1.56799422828316  -10.38401876856992
H        -6.51458209710345    2.15284083426924   -9.71401679290853
C        -8.45231060592908    1.52296472616299  -10.55926430219290
H        -9.23811861762629    2.06213688651969  -10.07186291226917
C        -9.98681159672160    0.17340775366169  -12.01093513384145
H        -9.82692349375971   -0.62452380483249  -12.75127669656024
H       -10.51930193201809    1.00180281447409  -12.48213481219667
H       -10.58353191397759   -0.21871270585101  -11.18522426071566
C        -7.19759947658846   -0.13664195193755  -14.80277827010078
C        -7.30034528472263   -0.86027051252370  -15.99839030014659
C        -7.54317142287615   -2.34727738373133  -15.87056912814279
H        -7.24659807881615   -2.88005942701767  -16.79144986482810
C        -5.32339111643512   -2.69529866864628  -14.96571467428129
H        -4.77167771080911   -2.94423256604374  -14.05219040444606
H        -5.08846393045616   -1.66790506681055  -15.25717691192063
H        -4.98635458302679   -3.36677584768239  -15.76878050883261
C        -7.02633607626256   -4.27021385002187  -14.49158459827476
H        -8.03472333564327   -4.42121772300085  -14.10784014519117
H        -6.32891898780067   -4.65852706121866  -13.74954595909663
H        -6.90152514577772   -4.84436792587423  -15.41990695149538
C        -9.04353450856474   -2.55600313839523  -15.61804323061960
H        -9.27765101144724   -2.25163014000919  -14.58309019357148
H        -9.34563792747039   -3.59041482371595  -15.76499439628640
H        -9.61711997807797   -1.92979112377168  -16.29859591743969
C        -7.22477084483893   -0.23506116617091  -17.23218447771442
H        -7.30773246006809   -0.81874256375435  -18.13994309645796
C        -7.04216871125939    1.13562756451457  -17.29864979463150
H        -6.98225750890946    1.62799792624991  -18.25856840928468
C        -6.93430403919887    1.86773624377470  -16.13054979299321
H        -6.78949934928830    2.93853645374425  -16.17725625370797
C        -7.00822781929978    1.23844491279394  -14.89573727243975
H        -6.91922711366906    1.84680320003399  -14.00124200234547

