56
CSD_code = RILLIJ | q = 0 | S = 0 | Stoichiometry = C22H22F3NO6PdS | MND = 4
Pd        8.18855816650794    9.60123517595784   15.57445843489662
N        10.07011033897222    9.42710274599792   14.61774325484322
H         9.96394669159822    9.45381392740355   13.59943251210545
H        10.53434686985152   10.29447008711294   14.90687732710142
C         7.73821861832483    6.70366022403588   15.50487206099574
C         9.10720061452671    6.60872218411782   15.80014206211536
C         9.47386805650555    6.02850106776602   17.01288006437117
H        10.52082756273678    5.89215075563735   17.23926246519182
C         8.52937775801245    5.59949115667170   17.92636710050352
H         8.84638062008840    5.16407485540007   18.86199093109365
C         7.18166638482958    5.71027145861507   17.63183324625960
H         6.43881019146942    5.36816922009046   18.33606773525151
C         6.79207193837579    6.24747621473815   16.42000404274230
H         5.74412971238898    6.31995138193368   16.16682197442577
C         7.26420419598591    7.28741376795719   14.22081653818243
C         7.40180648440276    8.60563749396763   14.05220398909013
C        10.93694290273394    8.28664792469795   14.98759169897436
C        10.17420419466316    6.95259838260529   14.78449255306523
H         9.72622633365431    6.95924134895635   13.78820704079195
H        10.91708642458943    6.15252672581060   14.80823180585882
C        11.36726489890166    8.48486116571434   16.43845716751570
H        11.91248805564587    9.42070704915590   16.54772180624568
H        12.01310055750545    7.67373896388815   16.76226297112864
H        10.49212483015672    8.52230389319010   17.08638831076897
C        12.16740832067806    8.29053615292284   14.07000172610181
H        11.87840132483593    8.11466305419047   13.03510177479143
H        12.86728617586035    7.51255588106622   14.36171575916579
H        12.68474109167353    9.24661947113228   14.12902405990956
C         6.45033267455818    9.70734835368392   16.26150573643325
O         5.36892904653467    9.60007435455253   16.58992557289045
C         6.63640467301211    6.33634419387940   13.26153197660131
O         7.14175017428353    5.31171071915918   12.87720728171819
C         4.71880059864592    5.92165477973687   11.98034673714257
H         5.33513125248487    5.72251923665348   11.10129143959252
H         3.81975697809081    6.46536151395314   11.70314133605675
H         4.46190218803902    4.97043800523552   12.45100671139854
O         5.41749931678583    6.75235401291302   12.89707415511847
C         7.14370211144879    9.39071983842856   12.85316483685534
C         6.87542357202215   10.76285897005350   12.97554487100455
H         6.84204884744055   11.22050299463532   13.97101154865957
C         6.63618066642388   11.53469766854377   11.85503069666674
H         6.41478375423283   12.58594623314130   11.96413915829216
C         6.68688435756005   10.96685314613383   10.59070977296830
H         6.50097555276090   11.57211433193542    9.71646684400480
C         6.99274357903849    9.62283898993981   10.45333166404272
H         7.05518026251373    9.18161781822663    9.46946692469870
C         7.22468396587144    8.84171776868621   11.56984014668685
H         7.48783338574822    7.80078078548877   11.45222010557960
C         8.38813762480382    9.86907480126403   18.89444551330978
F         8.26562896264464    8.74953793862998   18.12470812444513
F         9.51619316274472    9.72329980071812   19.58650246967997
F         7.36726111642833    9.86895254698667   19.74232174717075
S         8.44673590184556   11.41097001468149   17.80731942545767
O         9.45970687556237   11.03505048853344   16.83491917586914
O         7.10002538713446   11.47508157909005   17.25795518121511
O         8.81246469587417   12.46033738438023   18.69510043294233

