31
CSD_code = RILRUZ | q = 0 | S = 0 | Stoichiometry = C10H14Br2O4Os | MND = 6
Os       -0.00003955856706    0.00000983806483    0.00004046915226
Br        0.61963291475032    0.98822028364644   -2.13456779534069
O         1.88671328557247    0.34529932482825    0.71829932383766
O        -0.56815145052116    1.83990214702019    0.69778825676754
C         3.69069953520111    1.31908056350988    1.88120396644368
H         3.70973290314453    1.28589316623542    2.96860692446438
H         4.20434447785056    2.21991127360242    1.55416756300620
H         4.19714924077926    0.44340684908183    1.48495576141801
C         2.26114059803643    1.33508084278368    1.40415844397006
C         1.47050748231777    2.43939921944873    1.75600303248890
H         1.93538648536026    3.21117320957091    2.34878082633237
C         0.13095210094892    2.63219433221894    1.38608436703720
C        -0.54467461897137    3.89935134385252    1.84367295907191
H         0.01891785595694    4.76615243947932    1.50617053251449
H        -0.58670089732688    3.91646983918174    2.93093038039432
H        -1.55362165057091    3.93915160476288    1.44263406692951
Br       -0.61928321074715   -0.98828396802111    2.13433435762303
O        -1.88678219150118   -0.34535540198360   -0.71813829795992
C        -2.26118085923187   -1.33511850380160   -1.40403171253135
C        -3.69072952810828   -1.31912317496629   -1.88108971985567
H        -3.70976677456597   -1.28644578012584   -2.96850281757557
H        -4.20448762428340   -2.21973703363278   -1.55362602290993
H        -4.19705525501783   -0.44321158636440   -1.48522044290840
C        -1.47055318360701   -2.43945798141134   -1.75583326230837
H        -1.93542079809530   -3.21120190748904   -2.34866042225519
C        -0.13096919961608   -2.63221491118844   -1.38599416301303
O         0.56822004904730   -1.83980718518113   -0.69790332201417
C         0.54467493663330   -3.89928846568104   -1.84380905287941
H        -0.01942982886039   -4.76631364019386   -1.50670028317567
H         0.58700257821056   -3.91587729361403   -2.93142478712269
H         1.55377218578223   -3.93925944363336   -1.44232912960113

