72
CSD_code = RILSUC | q = 0 | S = 0 | Stoichiometry = C26H39MoNO5 | MND = 6
Mo       -4.09067288293341    8.07471028545634   14.66263082390613
O        -2.71487300210953    8.99567256595512   14.49053416725056
O        -5.41400805057522    8.89737257364776   15.21559662345661
O        -4.51090330909412    7.83020124243573   12.95728575983804
O        -3.54273012637864    7.06423070365015   16.01164058632279
O        -1.92383455620435    6.55860144357477   13.61271714572757
N        -5.24235040081472    5.76751769141330   14.56226224365431
C        -5.43129549239300    7.42141165504067   12.08213422094186
C        -5.97585916605188    8.26576806936365   11.09474116191676
C        -6.92654105532093    7.71800325404634   10.24701372005603
H        -7.35628482250297    8.34620281913340    9.48667292196116
C        -7.36280196163565    6.39706245607402   10.32197103579731
C        -6.80977989557213    5.59059325766499   11.30384417666874
H        -7.10663957627071    4.55928408923889   11.40955801384215
C        -5.85190683475513    6.08827050010735   12.17234383407091
C        -5.18981615301079    5.20823283458156   13.20101711782426
H        -5.66534836690319    4.21358982009096   13.17797791357541
H        -4.13193536518050    5.09300393148650   12.92844582742137
C        -4.44784970925712    4.95126449703811   15.49328712937473
H        -3.55724281526833    4.64275729566665   14.92789951529890
C        -3.87965061164920    5.87854039176846   16.62553308780929
H        -2.95761985809070    5.39168838436480   17.00069348314829
C        -4.79448907631898    6.07781198981910   17.82105105768158
C        -5.54749630102516    7.23823943073374   17.96374813854531
H        -5.48349056392627    8.01771204961507   17.21289986353715
C        -6.36172639509608    7.40766509278168   19.07180620084314
H        -6.94047261363061    8.31353408443439   19.17086751126733
C        -6.43145936097761    6.42860824722216   20.04796065385681
H        -7.06846852215171    6.56299713715705   20.90952672249853
C        -5.66430056519701    5.28243454936911   19.92365007988735
H        -5.69568173150111    4.52273387148246   20.69088156882976
C        -4.84415559722945    5.11275461623018   18.82276186779495
H        -4.22813919101839    4.22823229966456   18.74755699522802
C        -6.64091640337200    5.92362974698565   14.96628359967627
H        -7.09863670430568    6.71030780030622   14.36423477187452
H        -6.69586248008906    6.21738184265354   16.01182850083571
H        -7.20781379819131    4.99491305384161   14.81759281734472
C        -5.14508429204490    3.69792315961139   16.01981252304815
H        -5.96393695691972    3.94111093272581   16.69101090240211
H        -4.42616700948672    3.09014062271844   16.56252404544420
H        -5.52829654861244    3.10137233675168   15.19412292624004
C        -5.55690393526868    9.72948050913824   11.01240172527103
C        -6.10068641964250   10.45711765534438   12.25105795722471
H        -5.82601589898424   11.50893880418584   12.21127810113263
H        -5.69209941935754   10.03181404502253   13.17300492747916
H        -7.18641305447940   10.38344345373366   12.28457866591957
C        -4.02553423222034    9.85392204334811   10.97199762796660
H        -3.61236643390307    9.20731778647790   10.19861330028682
H        -3.58230215735557    9.59789458752602   11.93607595215690
H        -3.74801639886413   10.88073546182311   10.74320209880993
C        -6.11467332822003   10.42358026383921    9.76301172255427
H        -5.78706131508246    9.92068365217932    8.85564906735980
H        -5.75095380482814   11.44812825421075    9.73127273172285
H        -7.20107822281023   10.46201665072516    9.78134688020031
C        -8.41279942322857    5.90361451600139    9.33725841210463
C        -9.69012266606178    6.73870438437047    9.50269368707604
H       -10.06384648643686    6.65557034402098   10.52085337728189
H       -10.46058029056827    6.38423816958721    8.82127475540257
H        -9.50739119207132    7.78836474043328    9.29240472168498
C        -8.77531112821125    4.43181262633145    9.55391538243466
H        -7.90630971497771    3.79154517512520    9.42178774743110
H        -9.52594256856228    4.13270028703346    8.82524479798363
H        -9.19031219947152    4.27313002227465   10.54639010683807
C        -7.87358942929879    6.05557496439325    7.90804239682400
H        -7.66361711300084    7.09454468944231    7.67165762095948
H        -8.60268476180143    5.68419843608139    7.19105213771187
H        -6.95356654908019    5.48691694025529    7.79155423195181
C        -1.60004880436072    6.64330084818277   12.23869526780476
H        -1.66414134176673    5.63511324978247   11.82513992823039
H        -0.57996363968019    7.01534664406758   12.10171976120941
H        -2.29512084631562    7.29764250156287   11.70161880310291
H        -1.84950910111237    7.46152566761531   13.98688484923727

