148
CSD_code = RILVUG | q = 1 | S = 0 | Stoichiometry = C64H76MoN3O3Si(1+) | MND = 6
Mo        6.55494788899535   12.26685984212956    7.79467949797525
N         7.05788243457149   11.13692637784457    6.57230941616228
C         7.40738574409101   10.08714015162321    5.70316496293306
C         8.73137152527954    9.46710453277744    6.19022473899904
H         9.53017103965692   10.20166089414185    6.13015401644462
H         8.98988202103848    8.60892860990220    5.57560998140502
H         8.62206117624337    9.14443588636783    7.22380881014136
C         6.31279910459762    9.00153324662964    5.75242078811108
H         6.25882751746990    8.56745526434081    6.74882385846552
H         6.54499463355179    8.21676793336316    5.03770824357389
H         5.34431888926686    9.42871067444609    5.50097813260495
C         7.57161987516900   10.56972515084802    4.24978040748952
H         6.60144773428348   10.74177388229280    3.79344583875673
H         8.09682886765367    9.81671335092607    3.66846412174024
H         8.13852672301935   11.49586320109026    4.22615999006303
O         7.91739615082233   13.49103482922852    8.02784286617833
Si        9.05310732943411   14.64752572253538    8.10240206329125
C         8.19177046508185   16.29522687594652    8.50147834548480
C         8.82021796312890   17.30761999836930    9.22076349738053
H         9.83759502115711   17.16444308473364    9.55450953956393
C         8.15972059469033   18.48739916707004    9.51622036337730
H         8.66371783334156   19.26107070979522   10.07638388432484
C         6.85305594543887   18.67905791685716    9.09680806989774
H         6.33741613239655   19.59821236239633    9.33191459877331
C         6.21484536922143   17.68836392198940    8.36889475994893
H         5.19827969612170   17.82748836180065    8.02669956437604
C         6.88587354005597   16.51526922137997    8.07477815937242
H         6.39461993653667   15.74570402471502    7.49569399389420
C        10.36441936762156   14.32105258513924    9.44034763657760
C        10.11848503992193   14.60298710121004   10.78154263210578
H         9.14333547065569   14.96132583333527   11.07718789921957
C        11.10014067866017   14.43412781005905   11.74216240087422
H        10.88709017772018   14.66105767602387   12.77693990195774
C        12.35648862978207   13.97982462026701   11.37705867428535
H        13.12578660116095   13.85102158756136   12.12392867757231
C        12.62168486820458   13.69808825421276   10.04724396625780
H        13.60091867138570   13.34839120448964    9.75430758935198
C        11.63570663260973   13.87114057618829    9.09159318359837
H        11.85477321448965   13.66062541087999    8.05459879879854
C         9.88964701872156   14.68612520001548    6.39994048691869
C         9.81260542027586   13.56371067880955    5.57860955653798
H         9.24417896668487   12.70955816022044    5.93083953460502
C        10.43901983450254   13.53896575584613    4.34571472651235
H        10.37717349952316   12.65976978936487    3.72018122180598
C        11.15627846934096   14.64292400902088    3.91366639488484
H        11.64915806551579   14.62622940569847    2.95300805748550
C        11.24149255787739   15.76712444052650    4.71818429734475
H        11.80106931238275   16.62832233314724    4.38389867067443
C        10.61421936058287   15.78577876501124    5.95125395822854
H        10.68487647066788   16.66269144403450    6.57805757237610
O         5.58449692749074   13.35528748074140    6.74398276422044
C         4.67575701575277   14.29515920519279    6.62796686117692
C         4.39529263397791   14.95866355414752    5.40858902898002
C         3.31117080715797   15.81489355924193    5.37994713801370
H         3.07024127560698   16.30069404462573    4.45063532778916
C         2.50070935801897   16.09625250961764    6.48828722931742
C         2.87507835012986   15.55985020493151    7.69944504908352
H         2.34781566552021   15.80258690071638    8.60752206185726
C         3.96480467609196   14.68268998647577    7.79350915679155
C         5.29236458436859   14.74246014854693    4.19650274096685
C         4.90117202054753   15.62663728677094    3.00867666492369
H         5.60345871031963   15.45850844157816    2.19591616527477
H         4.94355981223616   16.68096310140620    3.27050570257919
H         3.90676506698234   15.38367831035903    2.64160644631761
C         6.74009012464840   15.08114441639404    4.58673283374053
H         7.10210896785177   14.42966958149885    5.38474053159270
H         6.81477952090105   16.11550613039288    4.91710305676978
H         7.39551065184332   14.95113880783888    3.72869447930595
C         5.21207242917194   13.27623133464882    3.75733033204874
H         4.18421435730714   13.00457930964322    3.52367278758917
H         5.59119347501338   12.63026311438070    4.54693101646838
H         5.81859545235573   13.12677266867738    2.86719846525483
C         1.29571195697183   17.00503453303611    6.31591999967079
C         0.48030006666406   17.13682032913362    7.60479044711120
H         0.14073647753115   16.16401571143707    7.95335470896246
H        -0.39630447658849   17.75142429695519    7.41584839385588
H         1.05790672793431   17.61796611351094    8.39031815051345
C         1.77567947426428   18.40192271150478    5.89806380023093
H         2.43984271815790   18.81592577009373    6.65361818394647
H         0.92436772006020   19.06865886365046    5.78778189268170
H         2.30950690494883   18.37425531671994    4.95238926057920
C         0.38190313478018   16.42017069571561    5.22983998974382
H         0.87930772343074   16.37669674832341    4.26550611442757
H        -0.50605807626849   17.03771546276209    5.12197918676149
H         0.07088370531240   15.41380740025190    5.50123044440490
C         4.43385419224856   14.29956107589341    9.08629962859246
H         3.95161100230003   14.81262735060058    9.92544821231129
N         5.39941153356177   13.48579439732342    9.34139288422502
C         5.81429748725394   13.41450903332258   10.68826584104673
C         6.40866786853575   14.52615455573025   11.28006619413979
H         6.55491441974307   15.42162829345431   10.69146386894654
C         6.82368461443582   14.46574287003943   12.59820864832533
H         7.28856279317114   15.32896676110268   13.04965279922867
C         6.63011488458136   13.31238076138224   13.33949280325578
H         6.94901667363384   13.27073398628966   14.36901618241156
C         6.01590997051107   12.21531176159516   12.75826568462460
H         5.84460781839311   11.31952830558473   13.33605093672132
C         5.60648746304135   12.26074589023128   11.43779986137589
H         5.10535255575765   11.40882744219192   10.99690019679030
O         7.17200674054018   11.28338624263715    9.19086293701649
C         7.15686328951922   10.04449895861343    9.60318223397014
C         8.23680595739642    9.42698903837692   10.27898499404670
C         8.09855119702268    8.10226923435799   10.65122800491880
H         8.92763407403739    7.62697122346313   11.14204634455009
C         6.94002219788726    7.34252844871469   10.43637567889117
C         5.87813567271685    7.96411355265676    9.82008525536358
H         4.95489113198871    7.43457342954697    9.63991033487396
C         5.96622214961881    9.29567346646490    9.37750846116441
C         9.50372050779612   10.22245596815660   10.57095226213364
C        10.55878810057610    9.40151566005525   11.31915689761725
H        10.18852463775597    9.06566890094343   12.28466521381215
H        11.42969372368695   10.02804440483762   11.49598167503075
H        10.88183639189879    8.54233961619066   10.73650989840454
C        10.12964635590875   10.71006334747013    9.25712871229913
H        10.44698120849477    9.86161177259140    8.65474036864050
H        11.00178593218792   11.32111436652533    9.47693275208610
H         9.42818545534840   11.31704154514321    8.67934732409643
C         9.13332769538898   11.42809402995845   11.44421368753059
H         8.49861349448500   12.12455899533337   10.89908811437395
H        10.03371982452252   11.95893173155837   11.74146558540780
H         8.61001380874539   11.10250488845391   12.34115537108558
C         6.82409929556353    5.88712758400798   10.86418308900152
C         8.10654380187640    5.35334359003553   11.50675563631032
H         7.96312803684048    4.31023881849636   11.77785354368437
H         8.35198781047809    5.90010736847072   12.41392184021668
H         8.94428698619912    5.40463458808716   10.81556946653884
C         5.68497503644821    5.75898383367932   11.88535210978964
H         4.73183213242436    6.05947649287405   11.45945581430334
H         5.88479920386787    6.38222645369232   12.75414287297057
H         5.59778450337697    4.72729864935124   12.21607030046701
C         6.51549446125464    5.03042853711224    9.62808718119221
H         5.57073202602124    5.31161793937829    9.17177887091531
H         6.45579181634275    3.98223929820778    9.90929511246769
H         7.30196188799412    5.14271786685502    8.88519597809628
C         4.82799852275632    9.90238986921215    8.77562288017154
H         3.88943538292548    9.34432224201928    8.85859028854006
N         4.80312756284175   11.03803560703551    8.14836037756332
C         3.52999476749491   11.51833985111771    7.76028831942038
C         3.23573432468151   11.71983791928878    6.41496815745731
H         3.96929285356456   11.44531130032926    5.66996546829389
C         2.01281527181355   12.25119780206280    6.04835308308216
H         1.78872636758356   12.40580208961739    5.00428530983690
C         1.07384050339843   12.57833682902978    7.01345237935937
H         0.12218242090189   12.99509892025748    6.72364182227403
C         1.35107824237100   12.34989549650845    8.34998077724987
H         0.61688423116981   12.58476476422941    9.10531689944713
C         2.56992270592268   11.81347957208441    8.72645474192426
H         2.78972159803963   11.64038352269641    9.77138706844392

