73
CSD_code = RILZET | q = 0 | S = 0 | Stoichiometry = C34H32NiO2P2S2 | MND = 4
Ni        4.50726855269008    1.10748523878987   16.76454178288040
P         6.40868490451685    2.14418783254411   16.68911917183225
S         2.57875233022816    0.31753749896717   17.35993161910904
P         3.63199022080581    2.90285824878161   15.92354706727522
S         5.44543073490818   -0.82464283847180   17.05454750542711
C         1.81479761254928   -2.21956752618837   18.04996103731570
H         0.82258138340831   -1.80033623858070   18.09327646495657
C         2.05971938554733   -3.54310056317998   18.35637147098800
C         3.38174034749454   -4.04351691402716   18.29865987987270
C         4.41445573765578   -3.20810958510793   17.92296030152603
H         5.43236900928283   -3.55687844676200   17.85721714259187
C         4.15509212461808   -1.87716847565451   17.60471367975774
C         2.86529021079497   -1.38215616048963   17.68228166879033
C         4.81576070342994   -5.91185797653126   18.59981536028070
H         5.48562918910033   -5.40346097189512   19.30249718016197
H         5.25224850020333   -5.87199792523889   17.59531828869084
H         4.70140600680161   -6.95243455493921   18.90077865366356
C        -0.22675734797963   -4.01137836148096   18.79221842976052
H        -0.58254959405814   -3.65933934767284   17.81727238801824
H        -0.35774394587658   -3.21299529827004   19.53151521415759
H        -0.80917188240767   -4.88056942214962   19.09514768661717
O         3.52439491966008   -5.36512870521861   18.62661695873292
O         1.10432367420028   -4.44911911749455   18.73128382407982
C         2.02245421942148    3.69933439753645   16.15169459132943
C         0.90440896259287    2.98067321676156   15.73236931616635
H         1.04451529639689    2.01087308103705   15.27465938623004
C        -0.36202773588171    3.50109528414775   15.91140230775005
H        -1.22566316774023    2.94244803940413   15.58264276216072
C        -0.52349315974411    4.73691294720123   16.51838402054902
H        -1.51350867027046    5.14484312533042   16.65937077078962
C         1.85593263269061    4.92781035344704   16.78023473992981
H         2.71272995305837    5.48257819263312   17.13410324393173
C         0.58404148733971    5.44497828483278   16.95379010591974
H         0.45723492423134    6.40365747327744   17.43580292591293
C         3.62324281602113    2.50037070654844   14.14786881400328
C         3.17179297018140    3.39075819003572   13.17969442287260
H         2.77876200128938    4.35457531714280   13.47465965751345
C         3.70802972890101    1.78629586668072   11.47538635634694
H         3.73867340589367    1.51169970365723   10.43121237338199
C         4.10501159247215    1.24973673555216   13.77377703558191
H         4.43545041973991    0.54730013512695   14.55442022872288
C         3.21666211154909    3.02928184001385   11.84582495158377
H         2.86501215940515    3.71703160250114   11.09042031131701
C         4.15067230882822    0.89377431343860   12.43845535850727
H         4.52494332897003   -0.07694143920878   12.14922057485207
C         6.50346993750034    2.85004254664750   18.36516729600308
C         6.50306062232670    3.90079083649124   20.92557568017940
H         6.50732207066240    4.31268310198407   21.92405971792722
C         7.54991097151089    4.18245129714592   20.06048669966472
H         8.36567016932120    4.81046686589211   20.38824885435251
C         5.46049967388535    2.56005820454989   19.23956112793718
H         4.64805045090247    1.89733795827086   18.90344017002826
C         7.55523275145247    3.65952657928926   18.78041555678222
H         8.37513809005200    3.86693329962808   18.10577323957218
C         5.45805448999658    3.08736155919005   20.51766004974790
H         4.64800117948018    2.86197867277638   21.19515242298921
C         8.10312993172881    1.57118752578629   16.41154454840626
C         9.90620055540281    0.19402023660543   17.20852930187037
H        10.31624060675128   -0.47174494904041   17.95334616250910
C        10.65241085755370    0.52778886143584   16.08888664798315
H        11.64677803535506    0.12579781356890   15.96224135431919
C         8.63480692388506    0.70846865635392   17.36829286470209
H         8.03486917614363    0.44429126274523   18.22857867383531
C        10.11959031148290    1.36867832595759   15.12627143256179
H        10.69769707335020    1.62011404819519   14.24876149597668
C         8.84497181848720    1.88571658059248   15.27898735317570
H         8.43340689386184    2.53146134870194   14.51687913814784
C         6.24029451134683    3.68467446316514   15.66929566033562
H         7.04980702007431    4.38481736286727   15.89443456932883
H         6.29886061700456    3.39662885439517   14.61468842262128
C         4.87001959905202    4.28399182805210   15.96289735763132
H         4.60006128687656    5.06130225866392   15.24237260228438
H         4.86365401234204    4.71177684425247   16.97056456786890

