35
CSD_code = RIMDEZ | q = 1 | S = 0 | Stoichiometry = C14H18AuN2(1+) | MND = 2
Au        5.26050490012039    4.32266336337488    6.05991415935146
N         3.64436210227713    3.31681909438466    5.19448182107412
H         3.45990846395182    2.45725502812925    5.71176444657819
H         3.89272684232246    3.01747941040330    4.25143640968605
C         2.35371085023970    4.05946400161217    5.09676030287708
H         2.53038265974017    4.96373081486840    4.51250140857177
H         2.05325790428164    4.34464849065035    6.10590756961535
C         1.30196640147026    3.20080628808385    4.44779779686314
C         0.49701953910833    2.37303993394806    5.22095285011463
H         0.59275547041429    2.38410938020632    6.29760917856149
C        -0.43728999371561    1.54873592510350    4.61916630600907
H        -1.06353566196711    0.91442376182222    5.22699931322028
C        -0.56932209459264    1.54149693340277    3.24055263131471
H        -1.29920039467718    0.90026342647374    2.77196210755636
C         0.23188574729300    2.36194999636536    2.46392958335795
H         0.12792036529685    2.36230738714666    1.39006025270122
C         1.16621871375958    3.18673060158438    3.06479187234618
H         1.78429025439206    3.83352718886506    2.45792207675659
N         6.87653362656716    5.32850243226336    6.92558689507193
H         7.06099974321421    6.18810465971361    6.40835156652011
H         6.62813281650558    5.62779051924235    7.86864983025691
C         8.16718277412072    4.58585267253963    7.02329935632433
H         7.99050542461104    3.68154752038469    7.60750181233604
H         8.46765659729490    4.30072905296512    6.01413970658026
C         9.21891861550274    5.44448940823443    7.67230116787269
C        10.02385226373665    6.27226552588805    6.89914290687340
H         9.92810493527811    6.26120447145502    5.82248783816897
C        10.95817130259000    7.09656399948557    7.50091935659043
H        11.58441029708870    7.73088048423283    6.89308236995961
C        11.09022269995457    7.10379497686686    8.87953123206626
H        11.82010603723297    7.74502759059414    9.34811691747383
C        10.28902631945389    6.28333337488879    9.65616137612865
H        10.39299948122079    6.28296812412092   10.73003048999236
C         9.35468861120114    5.45854937579170    9.05530620938895
H         8.73662638471209    4.81174478490804    9.66218088183985

