82
CSD_code = RIMGOJ | q = 0 | S = 0 | Stoichiometry = C36H42IrN3 | MND = 6
Ir        2.46073668742083    0.51642064516177    4.63313447571705
N         1.14263581561989   -1.07074206316210    2.29223945397966
C         4.25263850922109   -0.55961033596845    3.98557594092537
H         4.65045335817194   -1.08623028103220    4.85818872971818
H         4.02117321559686   -1.32450234298659    3.23422765940816
N        -0.07213780392847    1.79420608940105    5.96388280773272
C         5.31319747390982    0.31690899334216    3.45151505411555
H         5.85377362028091    0.90301336550235    4.18757753637022
N         3.28102323933568    3.29686177589744    3.46618341568738
C         5.65701138224449    0.42473047593304    2.17350149606361
H         5.15737787516200   -0.14004874153053    1.40271177095647
H         6.44919257396636    1.07569366034737    1.84189748723501
C         1.95535336954605   -1.33104337721338    5.70964925434441
H         2.00010435959120   -2.16708482873772    5.00113072507319
H         2.70942649446879   -1.51966840665677    6.47869426629978
C         0.62500986379845   -1.33797338289803    6.34633448794829
H        -0.22785640704856   -1.39901749964081    5.67498955258444
C         0.39577836766813   -1.27607898669719    7.65311412118201
H         1.20621677681511   -1.23220338543544    8.36345960597467
H        -0.60179034103185   -1.28416274820158    8.06271793714961
C         3.51179705744508    1.14529753839466    6.46037485407084
H         2.83504282932421    1.03337281824993    7.31405897761353
H         4.34933034406247    0.45981608276765    6.60936146293079
C         4.03655979637104    2.52114036554949    6.43659000913997
H         4.96193335452680    2.66503342929616    5.88716403826069
C         3.48187061361883    3.58135053629395    7.01514940598512
H         2.57118905771697    3.50010424483239    7.58843064769084
H         3.91684236802142    4.56570885801150    6.95345166750912
C         1.58954996973893   -0.35548956560101    3.10606706734716
C         0.64169143732972   -1.90801888732722    1.35147958485548
C        -0.63912343760912   -2.44624444034084    1.53443132425456
C        -1.13159443284861   -3.30191257826136    0.56300127417974
H        -2.11577230922350   -3.72929165590334    0.68602620068025
C        -0.37806876447372   -3.61283978029787   -0.55614815195041
H        -0.77736136748855   -4.28165514106907   -1.30349798975219
C         0.88502732464326   -3.07031242934818   -0.72131400499501
H         1.46736975388887   -3.31804222271157   -1.59642476428482
C         1.41816886017723   -2.21017997259287    0.22459590228070
C        -1.42761474891043   -2.09551876053200    2.75659769035125
H        -1.55670953849772   -1.01532905430878    2.83079478876845
H        -0.90182157366347   -2.42548922933826    3.65282106161882
H        -2.40692255434353   -2.56577011721245    2.73297900283041
C         2.78265140108326   -1.61620058013627    0.07784515254257
H         3.21753212575639   -1.87923237066431   -0.88270085113344
H         3.43826793225263   -1.98032069182940    0.86946611584945
H         2.74050214950092   -0.53041677740560    0.16447570398241
C         0.87528177223267    1.37086558484464    5.42250084823023
C        -1.21941963554937    2.23692935469782    6.53317931841774
C        -1.28127620387294    2.39183648323181    7.92402791477302
C        -2.47003316580228    2.84338503691975    8.47478842834041
H        -2.54054257080707    2.96815916054608    9.54520755966270
C        -3.56132327976156    3.13107032655587    7.67322644666381
H        -4.47922455400875    3.48153719753063    8.12052728285840
C        -3.48345428768252    2.96606783966896    6.30056209051232
H        -4.34052411253456    3.18654714916774    5.68136153208196
C        -2.31597717997655    2.51654228399024    5.70654412132610
C        -2.20344604828772    2.32520149111389    4.22587741003104
H        -1.80943017884110    1.33514595720053    3.99784799025150
H        -1.51576954925547    3.05573521487791    3.79870505357775
H        -3.17246399283131    2.44075536331688    3.74788100280081
C        -0.09005125636896    2.06597245952008    8.76402666375801
H        -0.33278217335032    2.12638812966671    9.82146134297641
H         0.72450923180290    2.75913157124495    8.55365249987450
H         0.26869453341494    1.06247225323516    8.53286365656341
C         3.04427880766338    2.19916639438321    3.79676072629804
C         3.45044796916532    4.62272035658830    3.24092858100675
C         4.56130137172584    5.06263602704937    2.51209334246323
C         4.70619081201939    6.42498186274800    2.30497410969171
H         5.55707925715116    6.78692068242390    1.74692525057039
C         3.77724125963000    7.32093888640864    2.80600131545484
H         3.90597497683586    8.37930371562208    2.63610525931793
C         2.68482381041481    6.86722168834149    3.52609741788136
H         1.96650914427501    7.57275088701255    3.91709775149728
C         2.49883238069758    5.51427858132918    3.75637581102396
C         5.55069148723565    4.06838918193160    1.99515760884451
H         6.33868371099041    4.56208250547531    1.43301246169546
H         5.05936948683203    3.33785198546837    1.35309557803034
H         5.99795402803347    3.51773709527410    2.82202979313445
C         1.33822676865181    4.98939764491182    4.53989341027511
H         0.68682117678338    5.79886486869947    4.85864643288987
H         1.69866284217328    4.45179388518770    5.41853321932277
H         0.76188728210276    4.28289264839214    3.94182881864171

