75
CSD_code = RIMKAZ | q = 0 | S = 0 | Stoichiometry = C36H28N8NiO2 | MND = 6
Ni        1.45794994920383    0.70275881103002    5.54672876827259
N         3.18044537594173    0.63818390909870    6.04247820303180
N         3.53242704791291   -0.18688116259756    3.94875456542539
N         2.25402278336648   -0.33411356733728    3.91485526643471
N         1.57523888906716    2.38002337649411    4.30397744650206
N         0.52012880527864    2.38996270310925    3.56656830089900
N        -0.24254634627380    0.78159909729225    4.98677276976023
N         0.79608574751957    1.65286818271131    7.47837578679767
N         1.05428432692895   -0.99264634200570    6.97270581335272
O         3.52751790657346    1.04375738186074    7.17440671425160
O        -1.10158543462723    0.01281782696095    5.47413231648423
C         4.05811077455121    0.21161837756230    5.11041287877699
C         5.51797376095086    0.24704958528354    5.21337039644433
C         6.19119924166964    0.79519611473667    6.30395449648024
C         7.57353890146589    0.83708173347579    6.32216052034298
C         8.30700814355539    0.33365027101252    5.26240908257437
C         7.64650223105789   -0.21695751779614    4.17498288351462
C         6.26823467313614   -0.26095801815429    4.14820342307511
C         1.69254717393765   -0.51348078920706    2.65733389763231
C         2.36551491814188   -0.13430134594275    1.49076411244206
C         1.74396977489499   -0.26198614236476    0.26632302586253
C         0.45430060213319   -0.76573246090343    0.18374149113108
C        -0.21108268455487   -1.15871909614476    1.33506117345957
C         0.40075657705295   -1.03962493152694    2.56568118634695
C         2.71302084656973    2.95367250915559    3.75117643140955
C         3.76727534055884    3.30932517826859    4.59727174350325
C         4.94101402890551    3.80469281642631    4.06802235356702
C         5.07718380726098    3.96122269982309    2.69707908606860
C         4.02608199276450    3.63183664322112    1.85407318591940
C         2.84918182376949    3.13153584371651    2.37010058798680
C        -0.50643605863433    1.64238181480307    3.98174104439038
C        -1.76563021743836    1.75394239242933    3.24371597646636
C        -1.84637684523316    2.69564071092965    2.21293432058993
C        -2.99682441905626    2.81980968528018    1.46238205081383
C        -4.09146699483649    2.00982697053758    1.72215061541547
C        -4.02191017656084    1.07587422078726    2.74073595346121
C        -2.87239978290701    0.94565786622937    3.49875978665586
C         0.93184554724274    2.94306048869412    7.73423358916631
C         0.94699116627779    3.45808049526597    9.02093789535395
C         0.82510517668651    2.57766334933874   10.08373678843585
C         0.67372522884754    1.22816332373942    9.81976802675808
C         0.65542795632122    0.79835064377571    8.49490539509811
C         0.49910205272865   -0.62141797476132    8.12903233867605
C        -0.19953028968400   -1.52349623274291    8.92817329535263
C        -0.30382752837619   -2.84025914007770    8.51728606786221
C         0.29620727539100   -3.21984409638258    7.32752187874178
C         0.96043496525674   -2.25429017151553    6.58771419269765
H         5.63306325189704    1.18905149174543    7.13846605758930
H         8.08066235675649    1.26698493548043    7.17398065343062
H         9.38662096713369    0.36755238272842    5.28253662821414
H         8.21192315195972   -0.61413420721647    3.34418232012976
H         5.74886699603063   -0.68616701775497    3.30382877852292
H         3.35978768068030    0.27788123162812    1.57755061501331
H         2.26186374539139    0.04398925822159   -0.63116489371718
H        -0.03279601512548   -0.84940648330030   -0.77627265110326
H        -1.21432027814985   -1.55317093795487    1.27211533739550
H        -0.10887428836770   -1.35116434935783    3.46561795514448
H         3.65184240388590    3.19216073897901    5.66479975813032
H         5.75750677610239    4.06316069575616    4.72574354587954
H         6.00234245353882    4.33673133570088    2.28603585028264
H         4.13238089313165    3.75498114852328    0.78598428793802
H         2.02910274639980    2.84586895687403    1.72832541020397
H        -0.99111196707234    3.32205575139650    2.01399426574719
H        -3.04323598698071    3.55246978216063    0.66941748753639
H        -4.99279112002499    2.10848513492547    1.13478751609312
H        -4.87093952168068    0.44124705116401    2.95051578372189
H        -2.83364902437484    0.21439015517511    4.29047110288069
H         1.03115678946159    3.59311385798852    6.87340605548503
H         1.05987024623764    4.51825499501266    9.18373228158130
H         0.85067631569314    2.93583224986215   11.10256854634435
H         0.59873998204179    0.51749534076768   10.62764721203877
H        -0.67493764619527   -1.19484176219220    9.83883958800605
H        -0.84724114844765   -3.55790682712931    9.11443206405157
H         0.24367096721619   -4.23791194742797    6.97536463726544
H         1.43728123812088   -2.50379899534433    5.64758668251384

