35
CSD_code = RIMLAD | q = 0 | S = 0 | Stoichiometry = C10H16Br2HgN4S2 | MND = 4
Hg        5.36637583838382    7.23768631769734   10.29523875546090
Br        7.03341740149491    8.87235493969125    9.48812387638614
Br        5.64301360236550    4.75444436132408    9.98398968466425
S         3.64390221036348    7.67023304644132   12.33453184216802
S         3.25001527919941    7.40987019155270    8.24555264486612
N         1.97663876550379    5.68069418516596   11.51541566210968
N         1.34578393832685    7.67409312181471   10.89872168695893
C         2.30606269001425    6.98758914887753   11.54897327779234
N         5.11553193298652    7.24660938461331    6.28047313546939
N         4.16173822306885    5.34333547475119    6.75688024381019
C         0.81600109607825    5.54628075947335   10.80275280675635
H         0.36928950147877    4.58897794245891   10.63150779398003
C         0.42587716864750    6.78426968669987   10.41814052926323
H        -0.41838722316516    7.10280071595208    9.84342327748686
C         4.20585911480314    6.65264056701312    7.08164103070543
C         1.34156307527540    9.09269590951164   10.68042307547178
H         2.03882535279793    9.55398383032781   11.37904644872956
H         0.34009699097328    9.48847874939489   10.84261684925088
H         1.66166821753478    9.31286069476703    9.65977834023865
C         2.71631809492293    4.61024721167199   12.12494588008552
H         3.18322262212687    3.98251365445573   11.36380511806940
H         2.05071130957294    4.00411667510463   12.73925618503810
H         3.49607773074434    5.04095154151277   12.75310262316557
C         5.44189762312090    8.64538212314999    6.26446888825264
H         4.79716542933915    9.16122257942890    6.97529122381229
H         5.27934329080145    9.05279060909079    5.26617983578018
H         6.48079329485058    8.79988065440737    6.55792858584941
C         5.08009785468076    5.10978778773333    5.76904197584997
H         5.23839369848180    4.12999662385389    5.36993274965030
C         5.67092055545368    6.29008326924732    5.47290884651833
H         6.43685704285111    6.53009064657942    4.76550336231792
C         3.30496982348637    4.35971697548653    7.35484669542583
H         3.90014088048174    3.62791745782168    7.90253110239544
H         2.71903256867336    3.85929649259895    6.58339641335103
H         2.63698500421164    4.86990667032389    8.04842955288541

