44
CSD_code = RIMRAG | q = 0 | S = 0 | Stoichiometry = C11H25Cl3N2O2Ti | MND = 6
Ti       -6.18023117431904    5.96611440719102    4.26199709127872
Cl       -6.80802667126309    6.51791352606323    6.31973414938549
Cl       -6.72942808311021    7.84287899481231    3.22351240548735
Cl       -8.21208852402936    5.08424949499580    3.88846663238754
O        -4.54681739975582    6.39126782383314    4.38636322688221
O        -3.21617238627679    9.60646619756517    5.43639995202623
N        -5.62780805989785    4.96097899872450    2.27700289481922
N        -5.50856515637483    3.92111555773377    5.04083275718701
C        -3.69787864633106    7.47082286929435    4.39794679996307
C        -4.01076726342601    8.43506018595312    5.56171318910283
C        -3.71241921802935    7.82607375185925    6.94114963887534
C        -3.06597615418106    8.98876145813436    7.69134405022881
C        -2.35353923706946    9.71349673704120    6.55234759675455
C        -6.60604870762764    5.21696394727882    1.21279469726646
C        -4.32529012623659    5.39063674890969    1.76429915844857
C        -5.61775635638076    3.52807650617839    2.59467507859453
C        -4.87808073970329    3.24033181098695    3.90287102446803
C        -6.60520369125660    3.10932427026697    5.57870852329806
C        -4.53436947314846    4.09678501848139    6.12166976914449
H        -3.81013834422394    8.04290406349022    3.46031829173038
H        -2.64812206201514    7.13438736610154    4.47960054501352
H        -5.06921590109898    8.72735419120215    5.47228585785162
H        -3.00177886053196    7.00245448039158    6.83788891574496
H        -4.61696387805701    7.45470125378364    7.41689712583121
H        -2.38442167507478    8.66682612221492    8.47529155164582
H        -3.83162795827781    9.63358016787046    8.12175821147510
H        -2.18551946720035   10.77524435045183    6.73965418561165
H        -1.38748877050462    9.23371619897224    6.33119511544178
H        -6.33039188328283    4.67671227593658    0.29704079799337
H        -7.59893236832821    4.90219949839129    1.53113627737389
H        -6.63822779285412    6.28713998636613    1.00634678858386
H        -4.06934575447163    4.83803784890970    0.84827891786331
H        -4.37171636304254    6.45519247438335    1.53345684404695
H        -3.54025601819329    5.23680410526979    2.50251461895934
H        -5.14675510257441    2.95466257857656    1.77851849791515
H        -6.65813693787741    3.20378051483947    2.69147400604999
H        -4.85289113469799    2.15143403082860    4.06980952130067
H        -3.84455702080896    3.59040841902318    3.82076843235921
H        -6.21720616183436    2.17375013730300    6.00567412141103
H        -7.11716508044779    3.67593311201756    6.35811035614699
H        -7.33156838585239    2.87590527983581    4.80287734655806
H        -4.14968330331552    3.12489754122638    6.46194988433541
H        -3.70555193289988    4.71582632707157    5.77921275749386
H        -5.01997077414233    4.60432937023023    6.95581239566814

