29
CSD_code = RIMROU | q = -1 | S = 0 | Stoichiometry = C8H8N2NbO10(1-) | MND = 8
Nb        1.00094406128358    0.12141486593596    4.68368093502630
O         2.33666971460763    1.51322485819283    5.38725933841092
O         2.60051396861066    3.58374176768893    6.15391500638053
O        -0.29302933329739    1.20115059621832    5.75012892220700
O        -2.77932024303334    0.24150310992126    3.00593856835775
O        -0.75572065920887   -0.42340827216682    3.62234771492144
O         1.48519416590197    0.76373170735389    2.71797543526805
O         2.42850853829417    0.17969795845389    0.79844104088766
O         2.64323404891656   -0.98450121460755    4.44713416912242
O         0.84958098434443   -3.45285664867030    6.66043433858254
O         0.53542576789109   -1.33749651090847    6.05159298392020
N        -0.04130159964323    1.84340413674605    4.59489351308365
N         1.62883577045180   -1.56814790462554    3.78300341601655
C         1.99243712116497    2.73257722439998    5.54475509635850
C         0.65262245160171    3.09881960791018    4.81871978096470
C        -1.22824447535121    1.91876961512963    3.76159829743586
C        -1.66604321324682    0.45311701825011    3.43516298857180
C         1.96309127479711   -0.08028767513917    1.88672673314300
C         1.86765014751335   -1.57085320552365    2.35052236852850
C         1.27287326782651   -2.84961517239434    4.36524275793214
C         0.86069580183572   -2.55524662057376    5.84836940150697
H         0.89885579695041    3.55816325769461    3.85552054177996
H         0.06767246796205    3.78888026319998    5.43892073535558
H        -2.04728281370817    2.44416161828839    4.26757636547245
H        -0.98183502994803    2.41602767664357    2.81721212652619
H         2.79663327604630   -2.09531261337151    2.09571041975142
H         1.01681344469030   -2.03120920108494    1.83693621449658
H         0.40257501552383   -3.26047977680350    3.84255252910028
H         2.10875028122321   -3.55947046615798    4.34322826089116

