41
CSD_code = RIMSAH | q = -1 | S = 0 | Stoichiometry = C12H16N2NbO10(1-) | MND = 8
Nb        0.34488866727607    3.84268392901679    9.26921981878751
O        -0.61088985459814    2.28846621558951    8.19021971553470
O        -2.55925181648049    1.55587104334759    7.43385505236718
O        -1.46939518553280    4.00962220569721   10.07304199298149
O        -0.63438664562808    7.56363003582081   10.55119009360577
O         0.51883406878074    5.77954257960944    9.89591592339328
O         0.62898006619501    2.57007452821470   10.84210484156895
O         2.13265270287569    1.29436043980185   11.86863263779642
O         2.33410467319943    3.92957319544784    9.30547618663759
O         2.10101992933659    4.46424936837425    5.58685244465257
O         0.65947241344458    4.46684310841231    7.26817472547848
N        -1.47798025947905    4.60471707090918    8.86551355920194
N         1.96491531947998    2.78630962013850    8.69794803694963
C        -1.83456791591211    2.43524239691095    7.85180396771687
C        -2.36605009456525    3.90397746984577    7.94220368616153
C        -1.67623234624092    6.04531342452126    9.00045911601118
C        -0.51441692952287    6.52879678006105    9.93030573444562
C         1.67842305538116    1.84429813155249   10.88782290274165
C         2.35745894223414    1.62727263445529    9.49497205733379
C         2.36864548927290    2.78461144159185    7.29465613385603
C         1.68208419621513    4.02836200019865    6.63931565335658
C        -3.82451633630599    3.92506529741946    8.38619267866186
C        -1.53793301224824    6.78135137686101    7.67082054090747
C         1.82403816232802    0.31685004286661    8.92301192333295
C         3.88095342121300    2.84127153430468    7.10917269614369
H        -2.23803807862341    4.33798100296455    6.94144743717679
H        -2.63698110992445    6.26094827868110    9.48895125296682
H         3.44796218393360    1.60035878179104    9.63012188431893
H         1.93081967125682    1.90206554354224    6.80912659065198
H        -4.30195723097000    4.87750968422538    8.16355816458807
H        -4.35380622307134    3.12553435775380    7.87271595407632
H        -3.86382569315361    3.73826609251215    9.45871628897623
H        -1.42832065876063    7.84532720575711    7.87141327424147
H        -0.64448876467852    6.42609435257216    7.15398627758032
H        -2.40933512993867    6.63655808989778    7.03348239601824
H         0.76995222293522    0.43851536802353    8.66665937576549
H         2.37972718976574    0.00260491362820    8.04044062770949
H         1.91401497107225   -0.45701328198821    9.68288290581923
H         4.34547811970279    1.87023880234347    7.27033575312399
H         4.09267786132821    3.18081107547015    6.09781245228009
H         4.29056995840633    3.56404386185625    7.81396724508110

