94
CSD_code = RINGUT | q = 0 | S = 0 | Stoichiometry = C38H53IrP2 | MND = 5
Ir       -0.34529705997548    1.25044666337546    4.00589721519563
P         1.64817045796766    0.82797475700723    2.90357455792585
C        -0.05284326002457    3.26898003878470    4.57551212874351
C         0.39899327395771    4.02804484826319    5.70014312280496
C        -0.09257296881723    5.32722176715248    5.88706952300847
H        -0.80842237169037    5.72539320572420    5.18253258100914
C         0.32344318939616    6.08597777185518    6.96107332361102
H        -0.06597074683636    7.08565589806369    7.09314954768694
C         1.23766831170021    5.57476332142569    7.87013548051909
H         1.56246606343637    6.17358670897123    8.70832533731769
C         1.72940820668185    4.29105729110117    7.69728458741276
H         2.44022267757001    3.88628125117703    8.40382033882827
C         1.31245191898314    3.52239156421581    6.62914864986072
H         1.69586316424086    2.52110045449572    6.50379877694767
C        -0.34429583929008   -0.82153557302949    4.00603765387839
C         0.43686609629068   -1.56062488521754    3.10341746083456
C         0.44107682765274   -2.94797000448286    3.10597965549870
H         1.05831753372623   -3.48751556355721    2.39842581190194
C        -0.34431984577175   -3.64562694976451    4.00605859849496
H        -0.34431516010598   -4.72646094331300    4.00607522239859
C         1.26131072734647   -0.79567324199060    2.10684317346804
H         0.64092263800223   -0.58763761087392    1.23090218439238
H         2.14150392403429   -1.34917063056764    1.77456705705846
C         2.26138223959884    1.85662569143482    1.42081425891732
C         1.07446687043588    1.86837718563449    0.44828411674544
H         1.14314820909339    2.72179511477469   -0.22451899082863
H         0.13566773026525    1.95101698672865    0.99584752618958
H         1.04932169931831    0.96862014847491   -0.16223156394489
C         2.51470386146723    3.29605813444699    1.87407621296446
H         2.56726490875953    3.95477496195144    1.00753012541271
H         3.44883692013861    3.39265847374052    2.41759041189282
H         1.70460319629978    3.63890121846733    2.51263069110364
C         3.49174407285188    1.31312273491651    0.69983208404132
H         3.64381905287883    1.87549184402159   -0.22172696576794
H         3.36624445932571    0.26528587573206    0.43469822494355
H         4.38959010511371    1.42205445348323    1.30308416959674
C         3.10659259865106    0.37602593264320    4.04150430351643
C         2.47628838304874   -0.18918183534197    5.31836012505999
H         3.23545961855633   -0.31352993453154    6.09041804150926
H         2.01861357974292   -1.15770107865382    5.13186139741457
H         1.70053470589803    0.47981205184780    5.69261359302487
C         4.07678177478066   -0.66919973402375    3.49260367268361
H         4.90677616674838   -0.77948010071823    4.19089006030587
H         4.48809977804385   -0.38748327296787    2.52821154616782
H         3.59559967017583   -1.64006921567728    3.40188081914244
C         3.86882974778099    1.65182627244069    4.40322166263403
H         4.48888830302769    1.48057093711717    5.28332743144202
H         3.17732443973020    2.46265478060225    4.62516397140052
H         4.52665562849242    1.95936158520131    3.59428929713701
P        -2.33694616322748    0.82809973523495    5.10860011909197
C        -1.12554514581861   -1.56058902600423    4.90862210154926
C        -1.12974655138087   -2.94794204343060    4.90609396571208
H        -1.74698800651595   -3.48748259480228    5.61366135807816
C        -1.95001928768875   -0.79559364374353    5.90519759454554
H        -1.32963251426128   -0.58749136577277    6.78112995481312
H        -2.83015318093555   -1.34915413600137    6.23756724572456
C        -2.95027415159567    1.85677258917696    6.59124640099597
C        -1.76309947577578    1.86867800218816    7.56344192495181
H        -1.83142164303245    2.72239975496187    8.23589003136855
H        -0.82439993275663    1.95087165317959    7.01563707587061
H        -1.73800895132460    0.96915942335278    8.17430950082116
C        -3.20354249372621    3.29607634996835    6.13754502424695
H        -3.25589311174017    3.95507134260228    7.00388215847312
H        -4.13778587897970    3.39252635625204    5.59419697974450
H        -2.39356973384889    3.63870020409769    5.49869894283313
C        -4.18049100176211    1.31349263834692    7.31263876106234
H        -4.33235553639754    1.87608304183407    8.23409870946867
H        -4.05495600018424    0.26570472738221    7.57796257386884
H        -5.07843652962075    1.42232998626988    6.70952075535708
C        -3.79556012533014    0.37565050084715    3.97104863140136
C        -3.16545994714411   -0.18994249856918    2.69426139601406
H        -3.92484388422032   -0.31468521798851    1.92247210929316
H        -2.70768576112403   -1.15837101612573    2.88097795800410
H        -2.38989373008115    0.47894813521022    2.31948607173274
C        -4.76578030620251   -0.66939784669457    4.52032540554500
H        -5.59600276570791   -0.77973940141501    3.82231070371703
H        -5.17680520439299   -0.38748151073532    5.48478159807880
H        -4.28469663923928   -1.64030977850479    4.61107974087923
C        -4.55801657324298    1.65122409730360    3.60894466414667
H        -5.17821778523551    1.47956276314378    2.72901368718609
H        -3.86668217924947    2.46206386013146    3.38654359120783
H        -5.21574547995673    1.95900215233588    4.41786520939203
C        -0.63523734512725    3.26928455088554    3.43745895915538
C        -1.08720765130542    4.02843167402775    2.31301494947643
C        -0.59582383193742    5.32764493764614    2.12605073267156
H         0.11993157738592    5.72598412806072    2.83059006526010
C        -1.01195737984166    6.08621414942997    1.05196761712953
H        -0.62278116173686    7.08597793261121    0.91985398953818
C        -1.92609085476236    5.57475560781026    0.14294423232562
H        -2.25098733912318    6.17346209507619   -0.69528753256324
C        -2.41768025673749    4.29100150615079    0.31589611529565
H        -3.12838821305186    3.88602085774258   -0.39062529745630
C        -2.00060175408829    3.52252097837615    1.38409467037343
H        -2.38370559667819    2.52111499759177    1.50956134211875

