96
CSD_code = RINJAC | q = 0 | S = 0 | Stoichiometry = C39H52BNNiP2 | MND = 4
Ni        4.66851196140031    7.99694050883736    9.76554690113656
P         3.70949784172974    9.90354163972856   10.18104551811531
P         3.93006563498112    7.21305848710742   11.69011744820594
C         5.30933412182206    6.42697053290368    9.17292919422543
N         5.64934966985050    5.35572508760000    8.90278205315161
C         5.54954483990183    8.56347976235423    8.17794307166573
C         6.86634534445648    9.01666496865130    8.28055899866872
H         7.40785583622703    8.93950652401959    9.21839668179363
C         7.51821940012296    9.55757229239892    7.18434251870178
H         8.53642945107813    9.90475477411877    7.28751191396184
C         6.87549052540781    9.64283165586586    5.96209486381813
H         7.38607867813509   10.06102732538594    5.10728257860798
C         5.58108324155645    9.17071937065552    5.83952368428071
H         5.07660518660368    9.21396342682161    4.88476094460225
C         4.92378382160339    8.63014239445819    6.93354714772122
H         3.91949178347099    8.24784953191382    6.79892024347865
B         6.07608327317395    3.95492045424972    8.67025786823844
C         5.75832721051925    3.57889074156763    7.12878280794366
C         5.54546794065968    2.25842836117584    6.74243982270060
H         5.55163480802975    1.48112484639898    7.49452371133318
C         5.31846864969972    1.91745098961825    5.42110345394874
H         5.15502282043513    0.88262243896763    5.14995833875501
C         5.29849737644650    2.89792360291386    4.44402711288717
H         5.11923493603208    2.63548972576911    3.41011489273510
C         5.51258945118359    4.21699996609116    4.80413218862450
H         5.50296554739070    4.99201647003004    4.04858231721383
C         5.74186656026285    4.54737133686011    6.12807058978449
H         5.91183398708765    5.58494358545189    6.38806662344632
C         7.67615888404593    3.86262091157376    8.90126558504834
C         8.28615053819626    2.61377870250147    8.99700429729247
H         7.67303856056489    1.72510132395041    8.94333649237605
C         9.65295816815158    2.48405654657988    9.16052509887068
H        10.09814918550514    1.50053575108727    9.23313926689846
C        10.45459121190733    3.61107185168709    9.23023722288722
H        11.52423609332457    3.51444498876717    9.35792719285399
C         9.87222946229945    4.86189722463252    9.12991926207528
H        10.48929465047726    5.75007397330654    9.17709410939595
C         8.50270937584704    4.98057936055910    8.96648081245568
H         8.07053674704008    5.97042561243824    8.88371750510942
C         5.20235943539445    3.11681931113092    9.75672202180090
C         3.87538629885605    2.78172749487834    9.49696913382044
H         3.44879482692641    3.03563754563969    8.53596895777214
C         3.09515444700478    2.12391147619361   10.43211695902628
H         2.07154246547134    1.86170411354455   10.19616680378029
C         3.62254393192410    1.79667871800933   11.66999048924746
H         3.01642661997039    1.28388073439836   12.40512996257707
C         4.93658303688229    2.12684759130924   11.95458635765493
H         5.35943665567828    1.87324867566660   12.91837417608557
C         5.71062283482502    2.77688982444982   11.00783433778484
H         6.73756959593958    3.02108120719555   11.24372097384641
C         3.07302246711697    9.88989519020325   11.93162039363679
H         3.85123020443930   10.35657544483100   12.54066153973525
H         2.18423085329131   10.52146416886073   12.00838372017887
C         2.79081277484380    8.47725356909981   12.44727271408794
H         1.77738075115037    8.17725421494086   12.16739676506712
H         2.86179833803501    8.44058232317491   13.53796159646245
C         4.35332514140408   11.64854691482342   10.06623554319869
H         3.65380363955223   12.30533192189812   10.59957771349517
C         4.47972568426779   12.09610534931204    8.61220162536529
H         5.01740264048448   13.04166176412560    8.56397796675334
H         3.50774218623278   12.24305010189122    8.14816711354712
H         5.03780497854360   11.35992167348219    8.03544573005841
C         5.72203394443586   11.71660996198483   10.74074249694707
H         6.12936182388849   12.72328435543516   10.66560497094429
H         6.41028073147385   11.03215941873058   10.24825906327283
H         5.66781814310868   11.45852061978590   11.79634604465614
C         2.19024574285414    9.92827499673673    9.10436826897105
H         2.57946034798336   10.21888528199315    8.12044082354733
C         1.65837855112844    8.50070159721428    8.98476971375647
H         0.96186355565459    8.41444256770655    8.15232159559898
H         1.13756582081777    8.20190863957227    9.89184354944453
H         2.48883841162028    7.80130318123759    8.81144310966842
C         1.09231146376535   10.90230184259429    9.51449038182935
H         0.33559631275236   10.94666997547207    8.73266712522697
H         1.48133138674322   11.90726246071814    9.66382235248288
H         0.59962471739296   10.57909404048468   10.42955167460049
C         5.38433855474662    7.16993772532196   12.85325443367456
H         5.03564835611301    7.26790024434623   13.88907453124253
C         6.27648412652496    8.35757199173381   12.49274349499963
H         7.24195130389992    8.28468381351084   12.99080272689245
H         5.81888983502756    9.30187998730880   12.77884886836316
H         6.45171651047361    8.36197084693585   11.40794747775080
C         6.16789528705845    5.87138193473084   12.68321750017745
H         7.09932202461925    5.92640052967112   13.24491594257439
H         6.41375414175654    5.71030252936685   11.63398410604765
H         5.61131140362677    5.01004241009011   13.04246464860047
C         3.06991009708653    5.59543609415181   11.98013550861515
H         3.82618115593021    4.84064993064302   11.73214023218559
C         1.92796449451547    5.42284610734312   10.98298843061884
H         1.53415435760620    4.41140466195627   11.04925689073110
H         2.29098952426447    5.57436298940327    9.96719416510807
H         1.11234683827859    6.11729582463653   11.18012735817005
C         2.59526942938787    5.38720563049871   13.41391885448430
H         2.22008503475923    4.37126958131720   13.52211431498299
H         1.78847848437688    6.07280413441878   13.66642933733731
H         3.40466550149155    5.52344771489617   14.12727707650021

