99
CSD_code = RINJOQ | q = 0 | S = 0 | Stoichiometry = C40H54BNNiP2 | MND = 4
Ni        1.37618278396644   14.48850216902706    5.92673547429556
P        -0.18672939344457   15.07023060137665    7.32239678869147
P         2.82598157718047   14.41996675358042    7.58912025694795
C         2.50871008373871   13.83256965258366    4.69646613572893
N         3.35988638832317   13.43252808573116    4.02444958471903
C         0.30209863403961   14.68781418718222    4.36806051585475
C         0.33457084593072   15.90597668821964    3.68732362955862
H         1.04087407330004   16.68076397317960    3.96835107000463
C        -0.52284808039998   16.15198473904181    2.62868680010382
H        -0.47936608353557   17.10586437460784    2.12142534726765
C        -1.42937453377969   15.19046527985178    2.20318027025897
C        -1.44337317024859   13.96849278616346    2.86008386316737
H        -2.12733529885669   13.19630074244298    2.53568647432356
C        -0.58941654809229   13.71430203505218    3.92095457290881
H        -0.62256078748093   12.73772519826707    4.38784290117415
C        -2.33835576437630   15.45385824574796    1.04092726326876
H        -2.62822527229921   16.50187619795483    1.00416362376300
H        -3.23449649907675   14.84036072450150    1.10075228755411
H        -1.82620430859449   15.21432141599217    0.10856366251881
C         0.58337119027355   15.40505598445466    8.98524874416737
H         0.76703961163798   16.48171022962757    9.02408496581220
H        -0.13037327250710   15.17245686774448    9.77978298928176
C         1.89839043662616   14.65014790260043    9.18767027611926
H         1.69363381046965   13.64531846093959    9.56686124570700
H         2.53125376434794   15.16152719859148    9.91840696881710
C        -1.44774471130141   16.44051022816135    7.24899086585748
H        -1.88361107956650   16.55366240025422    8.25025904044984
C        -0.74861655854904   17.74002006209593    6.85500045930092
H        -1.47224396479829   18.55006221339057    6.78264670778556
H        -0.26995177095267   17.62185290346497    5.88476268476446
H         0.00470480266639   18.03286878935193    7.58342582677301
C        -2.54694436494665   16.12760513728553    6.23686140886942
H        -3.17265972434584   17.00666113065239    6.09072426700563
H        -3.18768536274971   15.31640011550851    6.57297813610245
H        -2.11236313629467   15.85768865557065    5.27561632355058
C        -1.22265151660591   13.54064735401143    7.55781403842944
H        -1.86198279508633   13.52701836798465    6.66600042319997
C        -0.30637367038414   12.31979604801114    7.48452566544670
H        -0.88241985833829   11.41167785515403    7.31378291935429
H         0.25185975079881   12.19519680520243    8.40988486378865
H         0.40817170310797   12.43401243139290    6.65680199851842
C        -2.10115251208125   13.50738927056395    8.80242578645706
H        -2.76050126033906   12.64182860854594    8.75802734455731
H        -2.72021089663939   14.39839056222246    8.88153535828192
H        -1.50241752180213   13.41726836522198    9.70680980181341
C         3.88936795631276   15.94538262572921    7.47046408390846
H         4.22961157360252   16.23720141287975    8.47234242609013
C         3.01276405304938   17.04963409499702    6.87933254799120
H         3.61275464579414   17.91220394229569    6.59411967853353
H         2.25730929760875   17.38184499324352    7.58786513976588
H         2.51125648926295   16.67040164270821    5.97821704748629
C         5.08969225908426   15.70371924263704    6.55969686256743
H         5.60932947919580   16.64377642678216    6.37966628652676
H         4.76685136067038   15.30768255401768    5.59800430948896
H         5.80079610493074   15.00816331841842    6.99718647489176
C         4.02510232870725   13.05327568021294    7.95596804336476
H         4.71817086208547   13.06900092421779    7.10600586320985
C         3.30756028932978   11.70713075678945    7.91932098059555
H         4.03620096024169   10.90136597250024    7.96669067497040
H         2.75320230558077   11.60362073409030    6.98721239196134
H         2.62197633960691   11.59315431694321    8.75791171781691
C         4.80635229812218   13.23515523319114    9.25236790163281
H         5.57671126845933   12.46893945686590    9.31658944116941
H         4.15842159531834   13.13488140537201   10.12121080891654
H         5.29465549517295   14.20603796364405    9.29203619069226
B         4.56324775928437   13.04413868567303    3.24956192718559
C         5.56812638505298   12.43717652709566    4.37577486860021
C         6.68262525156937   13.12833237714462    4.84240499955476
H         6.92787382752927   14.08864106649293    4.40959818946994
C         7.48957860008479   12.61361960650583    5.84365190794554
H         8.35027515988416   13.17375554199343    6.18595352412801
C         7.20027431521665   11.38238948296174    6.40614221439831
H         7.83115569814169   10.97558393813809    7.18539096034357
C         6.09958816111719   10.67345716918012    5.95443246339364
H         5.87205044285602    9.70376821632917    6.37888145511824
C         5.29551912833170   11.20123862553177    4.95948697404626
H         4.43716004399302   10.63858151706534    4.61749199899557
C         4.12004159246481   11.96522145654378    2.12920256889410
C         2.86514742113730   12.02317563038156    1.52764303464018
H         2.16205457766412   12.78574595018319    1.83945026924333
C         2.49346267199220   11.12741641668879    0.54102069433330
H         1.51028910490705   11.19407828414098    0.09326591305737
C         3.37742131468229   10.14736745687610    0.12365717548455
H         3.09107047691338    9.44580913089098   -0.64827426278281
C         4.63183451654614   10.07425514739962    0.70409001801724
H         5.33035334200003    9.31187844920867    0.38458016689132
C         4.99235490550816   10.97205451776322    1.69327760329946
H         5.97282534588156   10.89516443431256    2.14437363519932
C         5.13748018082654   14.37182445618219    2.51678892093929
C         4.53896187337788   15.62548561457793    2.59626284173444
H         3.63161299170701   15.75097729493741    3.17518394152023
C         5.06794458297639   16.72657405205228    1.94448517011035
H         4.57819344621674   17.68876931928964    2.02501866646474
C         6.21928070546332   16.59976908232053    1.18857549072693
H         6.63562623465011   17.45737075791596    0.67775221536714
C         6.82973753571415   15.36055542735645    1.08948654471896
H         7.72833965705457   15.24844199131666    0.49738338489813
C         6.29223937657356   14.26756073736825    1.74360768324919
H         6.77722667123426   13.30577114206850    1.65508833697142

