83
CSD_code = RINKOR | q = 0 | S = 0 | Stoichiometry = C34H39IrN2O7 | MND = 6
Ir        4.28340201168837    7.07508508445028    3.90031302565624
O         3.43908919658038    7.02266809869549    5.79945130009534
O         5.33183092807804    7.19513607816264    6.97256985654482
O         5.00091128333122    7.08458794309917    1.95697355542962
O         7.15126835297594    7.49474448831051    2.38187144319498
O         4.12280228133715    2.94005708819871    3.87420832712677
O         1.28053613861354    9.38223230545229    2.38000150202634
O         6.05997447812881    8.34050905648017    4.68794126282026
H         6.78585252389678    8.02015064099037    4.12054431414149
H         6.12754799208745    7.96011294123910    5.59099289434187
N         4.83219336524120    5.04080980544761    4.13900440196482
N         3.14894851136911    8.68235985067175    3.36871378771992
C         4.13739531091107    6.93492353807907    6.85281105585905
C         3.34919605161199    6.38636711067327    8.06027674017496
H         3.90585610561891    6.58809276245125    8.97443474839305
H         2.37416406636646    6.87160019795536    8.08817477208859
C         3.20548747575646    4.91491447550016    7.81279239774807
C         2.31626852035198    4.45686451144543    6.84537452762008
H         1.71204220030270    5.16946762826453    6.30402063152222
C         2.22217510812130    3.10768342647236    6.56065793200673
H         1.52029875825203    2.76654579550763    5.81387777216383
C         3.02040941353964    2.19518350647808    7.23159107804434
H         2.94770588089434    1.14059795677091    7.00717400683651
C         3.91168979066055    2.64241980120956    8.19215976575488
H         4.53956207927708    1.93759196703698    8.71877386734348
C         4.00479974785287    3.99395840999274    8.47961659254080
H         4.70573418416067    4.33798064900286    9.22701978578770
C         6.18760424603650    7.38066912362274    1.63013734228261
C         6.36005651290206    7.59319203583061    0.10813722007776
H         7.39128158175936    7.88649170814433   -0.08615451927526
H         6.14971995389989    6.63838838785221   -0.37686880936800
C         5.38837094375038    8.63839768073143   -0.34555169889817
C         5.81498555903304    9.92397755131589   -0.65609800541793
H         6.86854517229537   10.16058538474427   -0.61604610205813
C         4.90313744252448   10.90437989199999   -1.00944164274765
H         5.25021133964400   11.89873179468090   -1.25073379249014
C         3.54970376554974   10.61514105281361   -1.04446293829371
H         2.83745897309545   11.38210034758168   -1.31391474687869
C         3.11497371972075    9.33609594573198   -0.73508882311974
H         2.05955321743344    9.10384510225516   -0.76001906720194
C         4.02640571494870    8.35341702830122   -0.39533999642504
H         3.68335638077161    7.36180177422091   -0.14249607727738
C         2.70602312975046    6.17586797996511    3.20397257778972
C         2.65674512299710    4.78855565252308    3.21257915586684
C         1.53029946878497    4.14683075509438    2.67958790211770
C         0.51503585409693    4.94945289154832    2.16276395662452
H        -0.35517532936848    4.45891291238097    1.74865699422279
C         0.55641422118491    6.34084419176984    2.13460470569574
C         1.68883773965070    6.96331646682820    2.67449833194993
C         1.42479707886168    2.65738758775818    2.61969326308195
H         1.89130643052042    2.20121630280344    3.48782356713638
H         1.95037829020563    2.29008097315939    1.73784416962449
H         0.38591606079067    2.34320104258212    2.55209749972978
C        -0.56134847466983    7.14278428605571    1.55293942537568
H        -1.02830487333024    7.74872976165005    2.32791958824984
H        -1.31470989033345    6.49978543851702    1.10543255012910
H        -0.17904449571153    7.82736390329817    0.79875488746388
C         3.88059193452703    4.24501888990525    3.76367337205881
C         5.41282581297906    2.80020984549258    4.46412739489357
H         6.00168192156034    2.11559236616236    3.85036673717095
H         5.28552656153049    2.37922372818889    5.46686780570472
C         5.99853364397133    4.23521077235124    4.50292490348206
C         6.53476444897895    4.58357773742705    5.88513727737057
H         5.75901598630416    4.46375339370341    6.63762455332417
H         6.87374125233379    5.61418305591076    5.91264247648087
H         7.36933000372341    3.92985165095503    6.12822978511326
C         7.08193845996914    4.42171662127553    3.43769196845686
H         6.71502396568277    4.09582714406926    2.46583559158964
H         7.96498030498378    3.84341521082995    3.69837627174839
H         7.35631260440807    5.47047655916446    3.35793840202720
C         2.03184359493458    8.36431814839797    2.79620412224685
C         1.99935848896402   10.58291710645459    2.67259362377650
H         1.35035607482663   11.23724128155762    3.25902781907217
H         2.25219526132300   11.06878399226739    1.72552904501703
C         3.26323711703798   10.13098595387437    3.45113636364870
C         3.22275257622393   10.54280742180167    4.92342728079012
H         4.05663176011731   10.07776743159331    5.44158432251738
H         2.29883442875330   10.20521276573136    5.38797085478163
H         3.30103971216204   11.62313831651663    5.01589093565426
C         4.55554920926790   10.60708582237442    2.79657572017982
H         5.40081569537194   10.18406632339172    3.33114545242140
H         4.61525704223339   11.69206777681571    2.83278240908447
H         4.60108552405531   10.28006060999451    1.76152724846569

