73
CSD_code = RINMOQ | q = -1 | S = 0 | Stoichiometry = C12H38B18CoO4(1-) | MND = 10
Co       -0.42423374356762    5.39990066327227    3.34295238614898
C         0.50197582075123    3.43766500743813    3.21477905768442
C         1.44142109912840    4.50028594932271    3.80929421124495
B        -0.19613704843583    4.01653355932849    1.82346299339141
B         1.13772697185106    2.80375466543533    1.75826658169751
B         2.21052930193512    3.11995539759041    3.10113577136386
B         1.54896255198281    5.87414736164193    2.90173181062613
B         0.51695789644027    5.61791503028873    1.51702571041434
B         1.16687656169755    4.18519027173799    0.67845356720923
B         2.66958885515093    3.64086029883072    1.48768321558957
B         2.88700879205163    4.69783820087301    2.89503911569661
B         2.29485412632983    5.37005200326616    1.37801370975892
C        -0.82496108646232    6.60759686660976    5.12005719478908
C        -1.57779216407237    5.26833076749347    5.14234850031205
B        -1.03052044919705    7.35085690682622    3.64700069792558
B        -1.92298621663999    7.92792561546830    5.10104980196906
B        -2.25898664136372    6.54219433212625    6.10486891596788
B        -2.40831450107005    4.95605284191829    3.74918914176069
B        -2.14351242568113    6.33049035236125    2.70200334374523
B        -2.77490000005206    7.74675759883077    3.57993306939306
B        -3.53966841142826    7.21975288336443    5.10875749625776
B        -3.28462068511681    5.46792332200857    5.21473563164193
B        -3.66067549750939    6.20604724924047    3.66024063399638
C        -0.16075162412385    2.43754708786473    4.15500748866363
O         0.24605367610447    2.65865213128887    5.50014433745223
C        -0.39856231481485    1.82880258357139    6.41626595177212
C         0.02692347199716    2.22113487175410    7.82639370069857
O         1.25474324967179    1.59544466997466    8.13142609562486
C         1.78014174393686    1.98821954749524    9.37064649111506
C         0.42052187749099    6.77383683754076    5.98365988417855
O         0.48995650489044    5.75621595304340    6.98709440926208
C         1.64310226944373    5.78993691557663    7.77406452742594
C         2.78546622259554    4.95405664571515    7.18303747288086
O         3.78197252553781    4.79195436494384    8.17473879313536
C         4.82644391631314    3.96105537314115    7.73685476748746
H        -1.25647512387332    2.50020924700091    4.09981121596340
H         0.11347445805708    1.40596383051557    3.87277494599871
H        -0.13718155863776    0.77319409771310    6.23878575466225
H        -1.49290470540353    1.93506259150149    6.32252154762172
H         0.12367924752882    3.31355012406651    7.87334011083919
H        -0.74056861501828    1.90383381178756    8.55142039197736
H         2.68805573412329    1.40629434509296    9.52243992265558
H         1.07346165076310    1.77799471854536   10.18579156777929
H         2.02823708399158    3.05572426407431    9.38757930399789
H         1.33720365847068    6.75954123731321    5.38608139563446
H         0.38623861178628    7.75201039567690    6.49328358832499
H         1.37629830290469    5.36264521076241    8.74820043244186
H         1.98229357967951    6.82161654135520    7.94082035604745
H         2.39447400326442    3.97135454286366    6.88207602749104
H         3.21577576717707    5.44485199271910    6.29786006861403
H         5.53740642665649    3.89146903260596    8.55873891647980
H         5.32437364157522    4.38120634977198    6.85431121702926
H         4.45449073474714    2.96083953192114    7.48378693413366
H         1.50931611381265    4.49743998119361    4.88873670246165
H        -1.22245781840160    3.56461897201289    1.45665516478383
H         0.85918815467526    1.68597939138311    1.48117709310624
H         2.64408343068642    2.29131393188461    3.82322060376354
H         1.86638600991600    6.89749005399188    3.41224288137564
H         0.06842160176247    6.46113924364272    0.82695290894931
H         1.02117740324465    4.05384250358902   -0.48923608572882
H         3.57414544274764    3.13699746104823    0.91260554215968
H         3.88935428105703    4.97846136050925    3.46529165813490
H         2.94797594670829    6.10888792110871    0.72152991867193
H        -1.12998526681008    4.49532553401572    5.75340868479097
H        -0.23534770020547    8.14062579672001    3.27804590228517
H        -1.56834169430190    8.94195245322202    5.60108838333834
H        -2.10542089332084    6.50392576662441    7.27461902356737
H        -2.66504563033442    3.83635045588513    3.45218849082643
H        -2.28635955320464    6.34593859235404    1.53223539128853
H        -3.17851716155309    8.68895648288346    2.98710446366212
H        -4.47031300036470    7.76702259083373    5.59599643328056
H        -3.92685626342838    4.66030123035851    5.79948904448281
H        -4.69524092637206    6.02368428417307    3.11246761898925

