27
CSD_code = RINNEH | q = 0 | S = 0 | Stoichiometry = C6H16Cl2N2Pt | MND = 4
Pt        3.68775934526478    6.47131433503515    0.44122801464927
Cl        5.41823044771212    6.76103860875680    1.83284542755888
Cl        3.90156111100323    8.49327934830413   -0.52003361038426
N         3.51139425807702    4.55699122955912    1.39369724575749
N         2.05734103214666    6.26433145917792   -0.96180529008856
C         2.90929102589256    4.64779880897725    2.73331062199561
C         2.79606100038555    3.27429539122227    3.39642865686479
C         2.17883340816637    3.41205849864161    4.78612470673374
C         0.80702447915342    4.07415501858150    4.69935252222900
C         0.91630408069535    5.44073259109453    4.02900112553230
C         1.53469035784545    5.30671438454876    2.64096113102149
H         3.56749367751365    5.28924522001387    3.32862226463337
H         3.02220417532134    3.85031047023897    0.84432649002895
H         4.48769099744522    4.27117817384692    1.49229715636715
H         2.16541561622140    2.62237095285573    2.78372752454836
H         2.13131686112931    7.20376476888250   -1.36818005139939
H         1.12931875354319    6.14305398610308   -0.56817561772027
H         2.20543109662530    5.58007824009626   -1.69752988869295
H         3.78428762088398    2.81535117069398    3.47404541469503
H         2.83582624042515    4.02039191382880    5.41023411720489
H         2.09067473495952    2.42807770690334    5.25004193014688
H         0.13131608203437    3.43726395475982    4.12297280397476
H         0.38701521869239    4.18557627779978    5.70001307641009
H         1.54249865827529    6.09478839333801    4.63761522734529
H        -0.07122973300388    5.89848273566179    3.95120191252052
H         0.88061349669582    4.70155354269891    2.00624638215703
H         1.65183595689656    6.29790281837960    2.18633070591057

