60
CSD_code = RINQUA | q = 0 | S = 0 | Stoichiometry = C13H34B10NiSi2 | MND = 10
Ni        4.62986734953802    0.48848171503640    7.25362506815835
Si        1.39193033416466    2.84527039263392    2.63428218837100
Si        4.62388805301912    3.10605714550904    2.98334390598376
C         2.85131762972576    1.79851617433979    4.94854565906375
C         2.90801754777201    2.86306862759595    3.85367452188560
H         2.77073667033436    3.82382819898896    4.36737909146993
C         1.61724234044400    3.97858786846373    1.11041044197319
H         1.89617106006094    4.98998990608112    1.37810669178289
H         0.67562713486110    4.03859708333269    0.57280843273053
H         2.35752554093723    3.59840250582158    0.41659967572730
C         0.96043614992198    1.16483398417673    1.83171694366007
H         0.56638749520766    0.44172238029896    2.53433735993439
H         1.82757884741814    0.72113258415287    1.35376253511146
H         0.21083224741619    1.31606671771938    1.05982892257689
C        -0.12082628977309    3.63111193444181    3.51523303872579
H        -0.17104853928465    3.39427700945773    4.57110686573689
H        -1.04993765333019    3.29757646061552    3.06301983009419
H        -0.09164779822993    4.71343069705487    3.42425385427040
C         6.14260854359266    3.39441958178225    4.12261012968728
H         5.99949791854229    4.28115391342563    4.73377090468358
H         7.02259905975023    3.57128350736874    3.50875619717420
H         6.37304304607642    2.57314798967253    4.78753274584859
C         4.95377593847580    1.68843332703782    1.74630978470744
H         4.82559340647549    0.70944889079208    2.19410203595309
H         5.96484567825222    1.74161856426777    1.35436319137292
H         4.27557200234632    1.75264697146208    0.90135394935582
C         4.63544176052105    4.76544307328116    2.02488206631322
H         4.02119094318714    5.51841772406762    2.50714006341305
H         4.28460098346097    4.65777785295826    1.00702311014473
H         5.64486496336412    5.16156122422540    1.97188310409597
C         5.92366534851442   -0.92058861991635    8.21816426500907
H         5.80524607101294   -1.98586224034884    8.32728320328900
C         5.51878142185658    0.05596602439774    9.15294268474514
H         5.03870538246413   -0.13571059285557   10.09822908806108
C         6.00214169497619    1.30602025125972    8.71185484065970
H         5.94697524249311    2.23219221529938    9.25943313462522
C         6.70900130591627    1.10122640596246    7.50969112568251
H         7.28702728561715    1.84514608585402    6.98673225861556
C         6.65885444860564   -0.27269920032929    7.20263234151515
H         7.18785786227905   -0.75901551881758    6.39978415391902
B         3.56754185606438   -0.72859573582649    5.94687713079141
H         4.13604906874587   -1.74834072678550    5.77965265970096
B         4.18248637222125    0.77720483404899    5.27642319025368
H         5.14563065843504    0.83185500151768    4.60989341044879
B         3.74883031031793    2.11715080662828    6.36157947969974
H         4.40921584143854    3.09048126661352    6.39746482960164
B         2.85790903218344    1.43812332138457    7.73510088168303
H         2.92836167417640    1.91369667306279    8.81210122298478
B         2.72407730305595   -0.34161077820601    7.47992775536360
H         2.72457693222960   -1.09517471695064    8.38657161934886
B         2.01790991057554    2.22335002845498    6.39730007006699
H         1.51244867362880    3.28427935459014    6.46299506490541
B         1.37974202934446    0.72336510395900    7.10723761743328
H         0.39251228268885    0.71045882175689    7.74704263109465
B         1.81767062554475   -0.60732260895292    5.99274308793661
H         1.14190557317215   -1.56019044184262    5.85201659694908
B         2.72607859813199    0.12120134567109    4.63348769830058
H         2.71075476616740   -0.26567091836202    3.52699671798015
B         1.37511091945816    0.97054121002731    5.35857996024920
H         0.40209914444856    1.16651934265532    4.73789896909630

