37
CSD_code = RINQUB | q = 0 | S = 0 | Stoichiometry = C16H8F6MoS6 | MND = 6
Mo       -2.52906971973148    1.93060141164226    3.93711302672823
S        -0.69690487362122    3.45234800435000    4.25073805459424
S        -0.71253258486056    0.43035140108574    3.46441489998498
S        -3.40695006803450    0.01970136936100    5.06112144837694
S        -3.39233052030060    3.04745323940527    5.85997116694374
S        -3.48042370730929    0.80263651389962    2.06403840767452
S        -3.46687183831176    3.84340817748447    2.86537338542853
F         1.78056710273976    4.53663621880456    4.85254138086196
F         2.11345498948495    2.97733453549132    6.28587600897408
F         3.03930808420511    2.88403771175666    4.34299672276263
F         2.62232127225013    0.45006142482189    5.31393048302825
F         1.54464437073285   -1.03377530154257    4.21184456772534
F         2.71368957332736    0.42380008834381    3.16130505821284
C         0.70154680767727    2.47849521016048    4.46062003994712
C         0.68872325941590    1.15958375498841    4.13801201895175
C         1.91192591245817    3.21483204964112    4.98191207066863
C         1.89484541015566    0.25447943727975    4.20964469274517
C        -4.69050876724336    0.66146313756507    6.04077521417698
C        -5.69126976850187   -0.17791635462683    6.53285891419696
H        -5.67686394101894   -1.21908662192500    6.25135043846872
C        -6.67846919899457    0.33096817664238    7.34681399610258
H        -7.45862897910469   -0.31844822807549    7.71221324494981
C        -6.67269689798114    1.67889050490180    7.70126495695168
H        -7.44826822560198    2.07071509706507    8.34067431892729
C        -5.67961312783275    2.51443403937749    7.24113196091402
H        -5.65623116208681    3.55909322492769    7.50861625494521
C        -4.68454350829783    2.01776636421903    6.39786261224039
C        -3.38037731078723    2.02673031114499    0.83327088435660
C        -3.37697787342938    1.66863945599869   -0.51602995423627
H        -3.38774220598548    0.62083001228703   -0.77225948594707
C        -3.34631937179904    2.64350060475918   -1.48778806136469
H        -3.33026925382859    2.36132085257052   -2.52885326112805
C        -3.33871059736339    3.99147683970930   -1.13242537928091
H        -3.31641268246225    4.74994177318520   -1.89912746264270
C        -3.36251554261404    4.36096192633782    0.19372456980878
H        -3.36159025489786    5.39899599116654    0.48746529025757
C        -3.37373480044665    3.38433764579531    1.19110751469236

