63
CSD_code = RINSOY | q = 0 | S = 0 | Stoichiometry = C24H33ClN2P2Pd | MND = 4
C         6.02786188095560    4.68071217427898   12.31644081526199
C         6.85905647112357    6.12552491146595   13.72536752862531
H         7.06319366822957    6.64049515734424   14.63970817703918
C         7.34106523508878    6.34417759569861   12.46686725702197
H         8.03226326283580    7.09166695409551   12.13044017616990
C         3.68972570702254    4.20942245005739   10.87203715282355
C         2.37283571255407    3.99353770192550   11.26851274785342
H         2.15914812736497    3.26796871565825   12.06197350749166
C         1.34871048397837    4.68981282424570   10.65023035760198
H         0.32498474115388    4.52447267463923   10.95162470993996
C         1.63912774266868    5.59908192867762    9.64575066922510
H         0.83915804840628    6.14209419353913    9.16429836088720
C         2.95266292654461    5.81917090339270    9.25772250401841
H         3.17274135525261    6.53330859841151    8.47781287051630
C         3.98255350373269    5.12814659216833    9.86859129955975
H         5.01360291425395    5.29456491468406    9.58846571021491
C         6.01289855834926    2.60513154223698   10.40895379490878
C         7.37660367238582    2.40532009208514   10.59860001375986
H         7.84345232435159    2.73655590426624   11.51584259102070
C         8.12989446921518    1.79973499967601    9.61107603218523
H         9.19050960473302    1.65489623638029    9.75548555488238
C         7.52550607085672    1.37514703449245    8.43845232947003
H         8.11597423658103    0.90118255386300    7.66840745138129
C         6.16398024487227    1.55344086942096    8.25502254339257
H         5.69170793727495    1.21644107520249    7.34387102631037
C         5.40540039452041    2.16144499049602    9.23821079010453
H         4.34129707318490    2.30127722192716    9.10020232572717
C         3.93756334644032    5.50194219249769   15.51398996696859
C         3.26872327909776    4.93374342427593   16.76393983506884
H         3.93499968472034    4.97656659484829   17.62189471655878
H         2.96344613853748    3.89997176591478   16.59638694187506
H         2.37921381001842    5.51588580119092   17.00067551054747
C         4.56979707979156    6.85728075788672   15.81068198310250
H         3.82251328374059    7.49709764994754   16.27945393350763
H         4.90304728569460    7.34990627218116   14.89975033812879
H         5.40776627404964    6.76845670298060   16.49892929325336
C         2.88341517103411    5.63725571457950   14.40613733317339
H         2.40200235094724    4.66550977907423   14.23606033823266
H         3.33279229165896    5.97776783037014   13.46923238155251
H         2.11512792499335    6.35300907224177   14.69359615494858
C         6.38881989692319    3.43977597148231   15.90407640176640
C         7.02522176100365    2.38052569158880   14.99012754297756
H         7.50162999404163    2.83923840102706   14.12019488136933
H         6.25560382533155    1.66413012513081   14.64370190279626
H         7.78536558118828    1.82104920241430   15.53364033937983
C         5.70805203766915    2.72008557273265   17.06786228060982
H         6.40207648056857    2.00859855799006   17.51364725844628
H         4.83239491419389    2.16902972474788   16.71914822647381
H         5.39901201150471    3.41552920276491   17.84309589214633
C         7.44873538103865    4.40872955764253   16.41789448499046
H         8.12089302274254    3.87524632714238   17.08956177471162
H         6.99976087131306    5.22635958958271   16.97842926021222
H         8.04643888109508    4.81715214049343   15.60571973269815
C         3.48604613946990    0.75215235316132   12.50132329719100
H         3.59936636244581    0.81440365283104   11.41150591529425
H         2.44754682365764    0.49069528310520   12.72735328021681
H         4.13696138933407   -0.05651082263696   12.87019036430379
N         6.00693657563727    5.05201080129929   13.64226134833436
N         6.81682283056069    5.43897594261233   11.60240936435646
P         5.01274171981947    3.31441054724415   11.73948426345642
P         5.04753027645192    4.16324191622895   14.78586011834049
Cl        2.79874909252546    1.67940336929830   15.28584861186550
Pd        4.08666984310992    2.42114252392442   13.56126643368669

