63
CSD_code = RINTAL | q = 0 | S = 0 | Stoichiometry = C24H33ClN2P2Pd | MND = 4
C         4.30185610144714   30.15349593487113    2.04593541785600
C         2.89029010666040   30.87744531415131    3.56746845379500
H         2.32375391172495   31.56361096070561    4.16401302313598
C         2.88026534060699   29.51590332174454    3.51014259502134
H         2.30092262516099   28.81698601286426    4.08056090807430
C         6.91504410621169   29.19689577421959    1.32662193722803
C         6.49181290223479   27.79943685463267    1.76015819891027
H         6.28453962658368   27.17063917478409    0.89894689755927
H         5.60138691427086   27.83534613994625    2.38320391745534
H         7.29934436198813   27.33785634143024    2.32711838435929
C         7.44283762713345   30.00522021681887    2.51988447068546
H         6.69538227786491   30.07262935691884    3.31252127223887
H         7.70487757040345   31.01830259330260    2.19117680824791
H         8.33656687560880   29.54020086196054    2.93247045719074
C         7.99917703199864   29.14698828659974    0.25040298967465
H         8.93911846917768   28.81071653073421    0.68573388417760
H         8.15393323768465   30.13627591542013   -0.18351695803130
H         7.73379035681685   28.45621503063137   -0.54561788085263
C         4.53919207640338   29.63207811837616   -0.74809401378968
C         5.43823980703978   29.65056707617269   -1.98362023823198
H         6.15444085717368   28.83373976801188   -1.96647018930169
H         5.98807272744615   30.59269522125431   -2.04022384830904
H         4.83413445086781   29.54909246461862   -2.88441356528167
C         3.92309655939505   28.25605098516902   -0.52235240694350
H         3.16417449074435   28.06668612999905   -1.28066870547655
H         3.46076543658096   28.18794800280518    0.46017089590079
H         4.67654421421297   27.47731335562537   -0.60093611927116
C         3.44467302281262   30.69495432763672   -0.93229493896545
H         3.89887307477664   31.69955372067378   -1.03926169195903
H         2.75719320260468   30.69784228176761   -0.08454085389110
H         2.86799158749362   30.49120880911213   -1.83372542867078
C         5.39860027139370   33.29233219107423    3.63002520525814
C         4.90249300281374   33.34032787264590    4.92931836049450
H         3.85280694057992   33.16115046789871    5.11616868454404
C         5.75466898136805   33.62664302524529    5.97992013484593
H         5.36950998945929   33.66276854616723    6.98838360367980
C         7.09851779360989   33.86845774616431    5.74043152028809
H         7.75861399544190   34.09218352985819    6.56514734111776
C         7.59535380022163   33.82612308195173    4.44752655108796
H         8.64161258144809   34.01799801648183    4.26283835797463
C         6.74925038941820   33.53641794023542    3.39180901086926
H         7.12884160352734   33.50862917879390    2.36205513260439
C         2.86191814471649   33.84551236984797    2.40597946452390
C         2.92642301864535   35.11540526037115    2.97121662579544
H         3.86843125288284   35.48456236723592    3.35397561860151
C         1.78724134155558   35.89603031084521    3.04619961965006
H         1.83888528816382   36.87888189589619    3.49067753469055
C         0.58421600840198   35.42098952411158    2.54971865441741
H        -0.30364835813087   36.03218397790179    2.61104212463200
C         0.52089840942848   34.16577476870850    1.96517960481458
H        -0.41408785858479   33.79947510518694    1.56790833663278
C         1.65709302147561   33.38367761437654    1.88221366842916
H         1.61348378791868   32.40881638520696    1.41453309661355
C         5.66258874005882   34.66638129741134    0.10877295571382
H         5.03196929660078   34.76864652904190   -0.78844885563452
H         6.65467781456296   35.06707145219890   -0.11759263215322
H         5.21980697437899   35.27285573399684    0.91024381328515
N         3.80086353869454   31.29578407779472    2.63014870803952
N         3.75701060289946   29.08402227419837    2.56603229496031
P         5.52495995340070   30.30041648984722    0.71258010102890
P         4.36791895682822   32.85871073929108    2.19102572377418
Cl        7.43795128445145   32.52815016229864   -1.02800462091239
Pd        5.74073848125084   32.62112518475532    0.46298058778462

