51
CSD_code = RINVIW | q = 1 | S = 0 | Stoichiometry = C18H26BrN2NiO3(1+) | MND = 6
Br        8.48526839483799    6.34298617438206    7.84355552907571
Ni        8.93241752007178    6.73220659606821    5.65002334424706
O        10.31927912538900    5.23851232027901    5.67365258525521
H        10.26639978992621    4.64329985746397    4.91615668908255
H        10.25375826013012    4.70613849091686    6.47946329477080
O         7.36682034577755    4.91037746049309    5.21470977849354
H         6.52267285729064    5.10599501827004    4.80064018121273
H         7.16889607671704    4.58273946003189    6.10221381177643
O        10.61740724387077    8.31636907582697    6.40660172801204
H        10.33650006192421    8.58666542199017    7.28963423521689
H        11.44157103681918    7.83231792491137    6.52715337088527
N         7.74043469898035    8.20467656449034    5.50700834336652
C        11.60680106969897    6.52893372321749    2.83829918874797
C         8.77669791902127    8.11396921610537    3.31404093085746
N         9.37584313505519    7.04337584313380    3.66783797955460
C         9.68298476300170    5.21926176576442    2.10810408252930
C        11.88999135456666    4.70900164787070    1.27886712496945
H        12.53402533127069    4.10546210691069    0.65967317730549
C         7.30243279229974    9.87400154689001    3.79867328074085
C         6.90430025230772    8.85831059881608    6.30898314324442
H         6.74609529951788    8.46002983398385    7.30122945320555
C         7.91025830896463    8.72659620137046    4.29008685251028
C         6.24379484880322   10.01710489194388    5.90815544180506
H         5.57833065396138   10.49817016331032    6.60686609636007
C        12.41819381541478    5.73448212188586    2.03953571534911
H        13.47899626957563    5.93194786776265    2.02099083679283
C         8.21712357392725    8.14826688699754    0.85607773564248
H         8.88631005161723    7.32387397035748    0.62386293875113
H         8.15943380214531    8.79322532609884   -0.01712003673267
H         7.22406149322295    7.75067449677633    1.05539330883576
C         8.22467673549732    4.87841379104582    2.17437106194314
H         7.89254603300035    4.45147054342133    1.23174206685716
H         7.61246103720502    5.74669066300263    2.40273971334235
H         8.05850085735676    4.13605596161075    2.95556338073170
C        10.53101308836480    4.45273539809011    1.32352732899905
H        10.11425511217237    3.64518718846644    0.74151029814368
C        10.22678712543140    6.28235937414134    2.84927112950306
C        10.13316956673547    9.50131472428388    1.72671984438085
H        10.54700813064374   10.03695238064679    2.57816154712595
H        10.06801806961017   10.18465284482660    0.88370860784623
H        10.80688411772200    8.69321276761824    1.45610455026247
C         8.73914862534137    8.95455226160880    2.04915954931735
C         7.75932534498863   10.11797973619268    2.39894233477374
C        12.23408738810890    7.60279689854757    3.67487749190995
H        12.93090588375790    7.14854189867923    4.37875564110199
H        11.49411335815319    8.17136398097201    4.22944856749697
H        12.80705681522883    8.28576078448670    3.05006271977539
C         6.43336588793162   10.55117556541472    4.64029301161002
H         5.92529104876100   11.45117983716483    4.33101885553434
H         6.90990888746414   10.14067566528076    1.71387414082192
H         8.25597674052356   11.08695516055944    2.32357801631058

