39
CSD_code = RINWUI | q = 0 | S = 0 | Stoichiometry = C10H22Cl2N2O2Pd | MND = 4
Pd        9.38085799832204    5.80824249313549    4.56413480152588
Cl        7.67833910322954    6.88363921648269    5.52116975513238
Cl        9.97462565521138    4.88575931204654    6.51452662119298
N         9.00783473637240    6.78503326292773    2.71378073524729
H         9.03683642304619    7.78567693447370    2.92414774013562
N        10.99034525452934    4.89181367731069    3.50658766622946
H        11.79653528459160    5.46649010568556    3.76526377984720
O         7.57251250673964    8.69817692477048    1.18532589655761
H         6.99669788047539    9.06714736965841    1.86657897743167
O         9.59691948553603    2.30934712001113    2.59657953211060
H         8.85067437344343    1.70546447027765    2.65759213135332
C        10.69810493809837    5.06986330563374    2.07991572768664
H         9.98404953343056    4.29448046567273    1.80045090428959
H        11.60527534956582    4.93156652358675    1.47240661232173
C         7.34392458582258    5.03753746676998    2.06481817547842
H         7.62636436984656    4.51140020381225    2.99239226199716
H         7.92128620323420    4.63717028627774    1.22938939385062
C        10.12305781516692    6.46472831206853    1.80905175349187
H        10.91241453565726    7.20661908756113    1.97443786320180
H         9.82145983662665    6.53110591152389    0.75868857761780
C         5.44574946470298    5.63866309586628    0.54495546841406
H         5.98404372982807    5.26113195076501   -0.32754516770918
H         4.37851720690443    5.51049600401451    0.35947614758530
C         5.75452269091257    7.12192745358246    0.72812470891135
H         5.47349299221708    7.68332385192534   -0.16477681810746
H         5.17668632607750    7.51324027685974    1.56993451461894
C         7.63189486445853    6.52316311547089    2.25968973335882
H         7.00096266701911    6.87258081917795    3.09162722943084
C         7.24334942641574    7.33677323143582    1.01072034060019
H         7.82441684177854    7.01788999743693    0.13821454535210
C         5.85661510974577    4.84274115970767    1.78160116839985
H         5.64407945554916    3.78393045793311    1.62638554474525
H         5.27821709750029    5.17945094255819    2.64346585351720
C        10.01778963524075    2.64436510885940    3.90929554886554
H        10.24098997391782    1.73410187683249    4.47812516880969
H         9.23060729255126    3.21338709799988    4.44504778091791
C        11.28364511346729    3.50093398050700    3.85766922425053
H        11.72134382157178    3.49384542426855    4.85777316482057
H        11.98416042119418    3.05689170511148    3.13807693651765

