44
CSD_code = RIPBAW | q = 0 | S = 0 | Stoichiometry = C15H25Cl2NRu | MND = 9
Cl       -0.65496256466462    0.33409072018830    3.50374684946196
H         1.78203714059793   -0.27571083308526    4.37731971567206
C         2.32005343852149    0.96396113996410    6.60827445562818
H         2.04990107976479    1.64226623945459    7.41816528704590
H         1.82415315104158    0.00849470163288    6.79016210344733
C         3.83161713169427    0.76091219584793    6.56156717439653
H         4.32799385297762    1.72923698789663    6.46272650931469
H         4.17830051085187    0.30163858549414    7.48822372773437
C         4.19198309883862   -0.12236910017639    5.37046924965829
H         3.76826144397012   -1.11901759650087    5.50939812248030
H         5.27411174416893   -0.22652291775307    5.28518944709581
C         2.58424712077173    2.78968238617621    1.50249310172485
H         3.62198436308780    3.04529258419885    1.68113232756557
C         3.28756102720487    1.43391799928073   -0.53395484973262
H         2.79728163719301    0.72662281323059   -1.21121047705972
C        -0.13047126236156    2.32396210585898    0.95818124156977
H        -1.17877646500999    2.17749366663864    0.71828284238437
C         0.85845370858227    1.73525964804639    0.16371984157769
H         0.57354661164461    1.13684765744385   -0.69583421232841
C         2.24382706706606    1.96804502374244    0.41756398091886
C         1.82755154910382    1.53574624864525    5.27934719355503
H         0.73865662984540    1.64181387812525    5.29231896577105
H         2.28631632748310    2.51366479924652    5.10331556893177
N         2.18445204747337    0.65162978754535    4.16710748330062
Cl        1.76287422605213   -1.09937221430362    1.84913719849594
Ru        1.21284011360961    1.14115597185445    2.32201701659454
C         1.57804678942539    3.37943530167592    2.31740074549904
H         1.86922252563539    4.07335460031326    3.09937473852225
C         0.21574286460074    3.17044249328551    2.05316305339940
C        -0.86235837689492    3.81012201425543    2.87176657544811
H        -1.53350154735479    4.38649997458051    2.23587266769522
H        -0.44276427122641    4.46485263078327    3.63226341012569
H        -1.44846142891353    3.03273744599300    3.36527541206456
C         3.63574625816023    0.47815807071888    4.07938629065588
H         4.08933276050838    1.45728224764957    3.89532267903247
H         3.84717472924786   -0.18421026751445    3.23549149751667
C         4.40115423448475    0.68176533607803    0.19420484268692
H         5.08810542540152    0.24906527903635   -0.52858124572053
H         3.96642291758490   -0.12271274222626    0.78405466086695
H         4.96556884339006    1.34195814216563    0.84882912809825
C         3.85036797389085    2.59119122153269   -1.36666326472802
H         4.55956469244741    2.21088876606299   -2.09752515497415
H         4.36338750546142    3.30998347990277   -0.73124366991520
H         3.05225337438218    3.10764352669969   -1.89635223169822

