42
CSD_code = RIPCAW | q = 0 | S = 0 | Stoichiometry = C19H15MoN3O4 | MND = 5
Mo       -0.61127013663228   -2.58557626851837    5.25209374029909
O         0.40059712981953   -2.01765277676823    6.74607873444599
O        -1.60855218502520   -2.18818772150717    3.78047255052518
O        -1.82552224250168   -3.22207880968429    6.16355074836834
O         0.55260762790714   -3.52745739608218    4.57049851752342
N        -0.40443339984269   -0.40699225109666    5.10235841137370
N         0.00725868164091    0.14554572419582    6.28614796600528
N         0.73146836529237    1.94323031829235    8.15315879685717
C         1.16302806862379    0.88740715870535    8.87918997246063
C         1.74445926550342    1.08332757264443   10.14118704929736
C         2.15686552961464    0.02073096968123   10.90956679738987
H         2.60013500381064    0.20183392868304   11.87759707790531
C         2.00655301060080   -1.28582218702061   10.44917271515344
C         1.44447954913557   -1.50517770711599    9.21463020985782
C         1.01881410664441   -0.43894587625900    8.40923539052731
C         0.44989301741204   -0.77233203119503    7.11241753396044
C        -0.81340894886385    0.43535580075733    4.18324245760194
C        -1.21016159861254   -0.03852458493398    2.87834274462228
C        -1.69371484370651   -1.35768826370425    2.77196493371322
C        -2.36238452133780   -1.78153329524632    1.59547065323811
H        -2.76282775937027   -2.78530520676789    1.59420870957023
C        -2.49039855156916   -0.94441058995776    0.53184390657133
H        -3.02137312634539   -1.26093733399639   -0.35380513530146
C        -1.89034010180573    0.33744379395302    0.54057472110706
C        -1.92541850749075    1.15199803546619   -0.60704026994076
H        -2.47045869948279    0.79986571863142   -1.47052360563591
C        -1.26217524042294    2.34837947939587   -0.64313244831051
H        -1.29074896424037    2.96734192197316   -1.52681786103186
C        -0.50574023964868    2.74695270170424    0.46314124163514
C        -0.47525677042668    1.98497820479464    1.60303257049587
H         0.16285918613517    2.28952488361189    2.41511916237589
C        -1.20670801450970    0.78510793327489    1.70244866189369
C        -0.98721591141711    1.87361240833591    4.57677164202834
H        -1.48906918498552    1.89572861596182    5.54529210061036
H        -1.57943881170563    2.41551473288423    3.84699642486042
H        -0.02108208359972    2.36032988766789    4.70772546347051
H         1.86077143748922    2.09502935648457   10.50306916452916
H         2.32941587293542   -2.11561192179039   11.05748041571739
H         1.31455400184907   -2.50782610785817    8.82950717413850
H         0.07084508470064    3.65869166903276    0.41283928607207
H         0.40189913982011    1.75192187925705    7.21862708141251
H         0.96019576460870    2.87510763411423    8.44856459260538

