68
CSD_code = RIPCOJ | q = 0 | S = 0 | Stoichiometry = C15H45HfN3Si4 | MND = 4
C         1.88123858954911    2.94977591914610    7.37564071851394
H         2.82353559637081    3.47496648216161    7.50479162935459
H         1.08432089214447    3.65644256703778    7.58544114197555
H         1.79547642633264    2.66673066621869    6.32715387936007
C         1.43570394765476    1.98020964954082   10.28689309628802
H         1.43737577864673    1.13757719751584   10.97031666311368
H         0.47426998847346    2.47300050217673   10.38483777969065
H         2.19770584862544    2.67771657845491   10.62424984207348
C         3.48126400786933    0.59195335766573    8.50346687526486
H         4.16988237121392    1.13833495462086    9.14192320435984
H         3.91699955883296    0.56422164515227    7.50970307229923
H         3.44142386730108   -0.42838392832234    8.86967240272364
C         0.71343209190403    2.06828916912132    3.03573442594823
H        -0.11291868680033    1.81673795667024    2.33800763792597
H         1.58260359312972    1.44944854885068    2.79419002087367
H         0.99143262412433    3.11452033906148    2.82685229130340
C        -0.77320630844494    2.74110407237652    4.75480264979509
H        -0.51727235459323    3.80395766010139    4.62206584822365
H        -1.04720832572103    2.58572928406212    5.80153296144502
H        -1.65843003819468    2.54346148070242    4.11962138689253
Hf       -0.00005836397028   -0.00023449779844    4.93712890508665
N         0.35545779043029    1.89898142854156    4.42358939102382
Si        0.00006276021330    0.00033916140456    7.57049345603570
Si        1.73553130334007    1.39501265835592    8.48446639740754
C        -3.49444421908212    0.15657694476654    7.37389340475172
C         1.61266038032252   -3.10395022628800    7.37448078544085
H        -4.41984172253614    0.71129134514140    7.50173248220891
H         1.59600362568580   -4.18262592065534    7.50333849004783
H        -3.70969343731174   -0.88654280828901    7.58374206513736
H         2.62339715389308   -2.76764415447370    7.58372095975751
H        -3.20511767970179    0.22309997611007    6.32569240284016
H         1.40988423095153   -2.88779438033418    6.32615173072904
C        -2.43368272974929    0.25176453810943   10.28600186781332
C         0.99846717796628   -2.23292926634569   10.28622177367127
H        -1.70443184944649    0.67282064310216   10.97012078162240
H         0.26883384468246   -1.81213335070869   10.97008750391916
H        -2.38106938862518   -0.82744912834149   10.38257587328004
H         1.90657487315980   -1.64748307593006   10.38313342728124
H        -3.41844749157285    0.56373237438280   10.62345841614018
H         1.22089183334214   -3.24166697752461   10.62378502358264
C        -2.25267987045679    2.71940052951261    8.50599797037902
C        -1.22819996987241   -3.31031022259516    8.50482489732575
H        -3.07269560858115    3.04149834795124    9.14206918538629
H        -1.09846942869807   -4.18020874342172    9.14294794581197
H        -2.44251952168096    3.11253852100423    7.51204684275307
H        -1.47132974334430   -3.67338582739415    7.51100715140796
H        -1.35018484666173    3.19412115017261    8.87665042082731
H        -2.09153925052477   -2.76550668884407    8.87235903326694
C        -2.14774769189221   -0.41757742712361    3.03483556964662
C         1.43480337587018   -1.65209979832586    3.03522351292739
H        -1.51713424538528   -1.00861450207354    2.33773808879360
H         1.63106377488459   -0.81071232796333    2.33773477904702
H        -2.04552386587027    0.64424973996745    2.79224073541427
H         0.46406904793678   -2.09464507494413    2.79315636549276
H        -3.19301920706474   -0.69931909003003    2.82609436757734
H         2.20139620332002   -2.41650742258101    2.82655197398863
C        -1.98829462846414   -2.03996516636781    4.75542517343418
C         2.76066019571501   -0.70207471129119    4.75498382186854
H        -3.03670605149778   -2.34948548100788    4.62196513490207
H         3.55282996561539   -1.45544650061350    4.62200015458978
H        -1.71783132205270   -2.19860269087419    5.80257796484225
H         2.76302213555796   -0.38765275403731    5.80188135553714
H        -1.37414965719665   -2.70864537943732    4.12151921304729
H         3.03266965360216    0.16358236934127    4.12031004650753
N        -1.82249074443081   -0.64184189735895    4.42295888411655
N         1.46685994752787   -1.25769736389731    4.42315798869174
Si       -2.07564325552536    0.80603113195595    8.48444299631021
Si        0.34017704877583   -2.20008210524031    8.48438576090837

