67
CSD_code = RIPGUS | q = 1 | S = 0 | Stoichiometry = C26H30BN7OPRu(1+) | MND = 6
Ru        3.15371429068467    7.49011258741210    8.76217193543195
N         5.65580451361906    8.53206371712344   10.01461809402956
N         4.42866951539480    8.09621392476254   10.31339409453490
C         4.25480995126131    8.25969015221094   11.62182526146615
C         5.40549860661729    8.80120942435410   12.18685819180438
C         6.27039804663466    8.96020898036585   11.12408622918368
N         5.16133156582997    9.44612678760685    7.78574305151123
N         3.86880558495866    9.12541280435838    7.75061208864141
C         3.23615494241410   10.03066731594720    7.01255418821957
C         4.15565665750881   10.96971746545693    6.55100181007789
C         5.36749137989233   10.55861822435889    7.06859579654970
N         6.01082162129396    7.14979473033374    8.00302905803785
N         4.84427796643728    6.49246887071709    8.00464033778047
C         5.06760872594757    5.30829258469615    7.43848347703117
C         6.40252369193692    5.19546762670103    7.06719680042634
C         6.96535569552565    6.39557696161745    7.44671082048137
B         6.15314731370053    8.56995330796192    8.56487927157741
C         3.47768906795920    4.95816061828729   10.51794010538213
C         1.35986165016334    5.97290102427055   10.81259682213077
N         2.38368706947364    5.63818018493074    9.81096636212366
C         1.78412235419641    4.68444791797046    8.85050943805575
C         0.87780321466722    5.36326568064265    7.82698117981549
P         1.83032840352200    6.73028208361784    7.01959720885534
C         0.50323088806808    7.69910221063779    6.23888603777341
C        -0.44055657632079    8.30324122510754    7.06805914983710
C        -1.46552545993021    9.05472895050807    6.52681706197964
C        -1.55325946366428    9.21711170595989    5.15249138201559
C        -0.61328353398568    8.62685296250416    4.32473945784400
C         0.41531407405490    7.87124663914690    4.86121187553355
C         2.69715100224475    6.01210052735903    5.59083538949770
C         2.46012471576107    4.75153575481967    5.05533924268930
C         3.20590511768033    4.30995933807328    3.97493310878494
C         4.18626474060081    5.11677576612674    3.42258651671951
C         4.42222099712794    6.37848215084393    3.94698920912283
C         3.68394469359998    6.82174954774209    5.02669899194160
C         1.84805106849479    8.57266530387322    9.48610934024271
O         1.16165903281148    9.34890556508204    9.97128611543678
H         3.33183448643547    8.01225875472035   12.11205133888135
H         5.57467009573416    9.04425967837870   13.21439394939749
H         7.26798643839386    9.34666904222480   11.09389953262541
H         2.17560368882520    9.97558242749777    6.84158483427727
H         3.96206804925179   11.82186493645729    5.93443233202546
H         6.34479186783078   10.98406920953624    6.96958623442975
H         4.29060566554448    4.58280456240444    7.29030782217421
H         6.87852118433507    4.36356288649519    6.59311757873854
H         7.97125787194673    6.74956421456977    7.35609538243945
H         7.25786932482922    8.96763334409676    8.48402755036208
H         4.27135876545796    4.68184887749930    9.82448124261630
H         3.11586543591890    4.04814076861951   11.01055598435387
H         3.89309693035333    5.61762228642001   11.27924262368510
H         0.49585936178315    6.43777462397997   10.34156921062948
H         1.76295911078467    6.66373671888485   11.54965383310461
H         1.02653116844384    5.06973181006470   11.33734798229893
H         1.21920004180610    3.91964594526876    9.40239374852243
H         2.59215981909591    4.17657480652972    8.31898168465732
H         0.00393190316149    5.81390766327546    8.30458261496446
H         0.51131982959050    4.63843191677330    7.09709771848947
H        -0.36462696206588    8.18742961825911    8.14103571500485
H        -2.19371900332272    9.51744451196617    7.17518896193887
H        -2.35217265392446    9.80593042071597    4.72946485285716
H        -0.67885271309431    8.75398899343449    3.25503091760017
H         1.14485079386516    7.41540645026280    4.20809566271550
H         1.69866840245401    4.10596747261444    5.46761530764728
H         3.01844258249718    3.32969664277645    3.56362286881171
H         4.76466787924135    4.76413770534180    2.58291393953223
H         5.18212731279241    7.01205321853667    3.51547307425301
H         3.86012019585565    7.80616986890739    5.44398099839861

