75
CSD_code = RIPJIM | q = 0 | S = 0 | Stoichiometry = C28H36Br2N4O2PtS2 | MND = 4
Pt        7.33511993684446    7.37011680349609    7.90293240006243
Br        6.14463886276826    8.62681625705918   16.48891809579223
Br        7.10527187103677   -0.56922320404061   11.61808583449722
S         6.76249837268466    9.49301973523998    7.28639799068296
S         6.99981644413238    6.62858681398395    5.77101415261315
O         7.59332745891041    7.89822262119752    9.88935601515696
O         7.82091091970513    5.48484892186842    8.60277092459833
N         7.10368320254174   10.16387601107200    9.91468266970133
N         7.31609703965053   11.80869259132584    8.38541744081353
N         7.61825886020838    4.14146335299836    6.72207025818310
N         7.92957217308996    4.52096126149781    4.51538637869358
C         7.21773653434978    8.96148992439343   10.44420753227165
C         6.95628322379457    8.90604110878554   11.90591165216210
C         6.81898437146390    7.66288782809905   12.51905289455216
H         6.90220956668529    6.77170730689448   11.91586758697816
C         6.57656865363705    7.57270286853753   13.87542766125675
H         6.46633414289685    6.61190468670189   14.35465695943692
C         6.47523207607107    8.73819446384977   14.61739350031325
C         6.61089088927977    9.98500893204936   14.02748045151471
H         6.53082873253062   10.87911909066109   14.62686205387640
C         6.85086654824701   10.06444046520078   12.66995233339360
H         6.96576514999368   11.02176989986479   12.18886950063044
C         7.11921811021366   10.50736143684567    8.64092601917481
C         7.49794578305029   12.73350006596652    9.48541618427936
H         6.82426509467095   12.43722150358811   10.29261443419852
H         7.21906716246334   13.73097766853431    9.14009416306729
C         8.93887231321338   12.73853987623535   10.00192444431299
H         9.18982918237516   11.73159426891559   10.33778817955472
H         9.61442952170568   13.00056107686077    9.18483730186658
C         9.11024000116803   13.72544232680535   11.14879542834512
H         8.86845094980922   14.73588368469806   10.82589368658017
H        10.13624342981528   13.71617882461176   11.50689319213428
H         8.45634569057920   13.46531463516713   11.97788085986048
C         7.33998486984497   12.34154128736492    7.04374021243927
H         7.75576440007458   11.58645607837437    6.37148407768560
H         7.99776038221668   13.21437039196316    7.03791977039505
C         5.94365635678006   12.73390311453061    6.55205685696332
H         5.30684266194789   11.84908497624191    6.57156695937066
H         5.51525005751331   13.47550446638001    7.22986842060087
C         6.00005699217225   13.29487941895707    5.13811835316995
H         6.40364219517253   12.55253941546896    4.45427315024710
H         6.63191833659858   14.17983089131279    5.09936506459488
H         5.00445711314358   13.56847204959689    4.79940881950295
C         7.63499426096483    4.38800453363387    8.01870877446581
C         7.50839424614486    3.17699991171833    8.87068182015380
C         7.29101401207175    1.91999496598700    8.31323710945230
H         7.21796840188455    1.82850838304274    7.24226345034325
C         7.16866764259490    0.80925235967015    9.12424662965870
H         6.99791463343817   -0.16799749831100    8.69881369614262
C         7.26820899761132    0.96196050841066   10.49831095104559
C         7.48495605982946    2.20350431530430   11.07365335458408
H         7.56025341314620    2.29986138774990   12.14603384700159
C         7.60243809349985    3.30868956573039   10.25436489651861
H         7.77438334604904    4.28810784352625   10.67401514168850
C         7.57498186557589    4.99803938240097    5.71922485809878
C         7.80696870117219    5.31808033225353    3.31675183484420
H         8.48972408603524    4.90955214347636    2.56825182360376
H         8.11749705443817    6.34143564924383    3.55038586045365
C         6.38398221545400    5.35995400418300    2.75066964127573
H         5.70386759250187    5.69681296568271    3.53307538103901
H         6.07925663486006    4.35879743725412    2.44254640006609
C         6.30510060900542    6.30973910257558    1.56333925124336
H         5.29688481067558    6.32575892835774    1.15824063287086
H         6.98782366119436    5.99879614935966    0.77519534045626
H         6.56796628589633    7.31882586976503    1.87018455183785
C         8.37655159865753    3.14686195645746    4.39972892085945
H         8.91315943845808    2.89056038141098    5.31591204720963
H         9.06873761609943    3.08175393374431    3.55694262757485
C         7.22148714584713    2.16029056091453    4.20630059711680
H         6.73764281644405    2.34148227753079    3.24548156070779
H         6.48491904640904    2.33430241467613    4.99193918793848
C         7.71663508642363    0.72089909160758    4.26079603579414
H         8.44005735233747    0.53514418131380    3.46987283938108
H         6.88733212552741    0.02936801761204    4.13555902537926
H         8.19579551474710    0.51535374470218    5.21539204558141

