35
CSD_code = RIPLAE | q = 0 | S = 0 | Stoichiometry = C12H18Cl2N2Pd | MND = 4
C         8.52212585888329   15.14692807101847    5.09084789953934
H         7.52653046216865   15.55811893881790    4.96852787134808
C         9.63470416250019   15.95161185858960    5.26374388801307
H         9.52279441134139   17.02325653251346    5.29197228894142
C        10.88034058408655   15.35782903783774    5.39902958305194
H        11.76800520121076   15.95502656562908    5.53882316371735
C        10.96414069321876   13.97390717388005    5.35239440950596
H        11.91487935187468   13.47288109150780    5.45281132736006
C         9.80779194085167   13.23333955247653    5.16887945658914
C         9.79748019911029   11.73237130189057    5.07585322860505
H         9.70115980346258   11.47168341717088    4.01542786690519
H        10.73865806983670   11.31464307195532    5.45632325219177
C         8.85999094601262   11.25085069881533    7.25616894587253
H         9.59489285304049   12.03697654832082    7.46757413024173
C         7.56805714728754   11.59579644476217    7.99494451316513
H         7.18081349605489   12.57279228903995    7.65769476970753
H         7.75530161617031   11.65253575002298    9.06513254328756
H         6.80384352310168   10.84221521548380    7.80879637529186
C         9.41458744695550    9.85781355033835    7.64937730369958
H        10.42295113092812    9.93046503092342    8.05475984389775
H         8.77903366189397    9.41167046930502    8.41245661766346
C         9.37257408875093    9.02420806247257    6.36329511707570
H         9.06485993600822    7.99764330340122    6.54639595423642
H        10.34493209653825    9.00143195416421    5.86740626406889
C         8.34834453862303    9.77906016084717    5.51575045086385
H         7.34613643160468    9.59638886404101    5.92156273766137
C         8.29979196614448    9.44773338650593    4.03347891720323
H         7.69173094275268   10.20449780379446    3.51947270639542
H         7.81135832324483    8.48676444958036    3.89893865779958
H         9.28859025338516    9.39202569181654    3.58126240925410
N         8.60832588319098   13.81886557678533    5.04309665950786
N         8.62905831846652   11.20368447041870    5.79580693615843
Cl        5.61567366070002   14.03081075910461    4.30214079781289
Cl        5.41649797487909   11.06634199138837    5.28432500826164
Pd        7.07374302572085   12.53353091538099    5.09142810510439

