36
CSD_code = RIPMUA | q = 0 | S = 0 | Stoichiometry = C13H17Cl2N3Zn | MND = 5
C        23.30279969242019    7.68578632972850    6.25911558479938
H        22.78822193058208    8.51783183352791    6.71926402684686
C        24.70357413111356    7.65138748230599    6.20188431341718
H        25.27379529122037    8.44410730307596    6.65900775628977
C        25.31514530523783    6.62711000758508    5.53021490960387
H        26.38992235567376    6.58592321764186    5.42650328792271
C        24.52789787533660    5.61244042081617    4.94757991103616
C        23.12425413510322    5.69014579974380    5.13553473699535
C        22.28109427529815    4.67042728449516    4.60863105817619
C        22.83921343279601    3.68487191157130    3.82606541638904
H        22.21474784635691    2.92335557911431    3.38535975506583
C        24.22405698687901    3.63399367514495    3.61513153914157
H        24.62809648432456    2.83563453087181    3.01099434363583
C        25.06054138772972    4.55466501078243    4.18314165659365
H        26.12950567147977    4.49419298773383    4.04742616898503
C        19.92403256516155    4.12507671695259    4.09056149926753
H        19.85964803392647    3.04716835180064    4.29340844546638
H        20.18290865188440    4.26179209245122    3.03693910015985
C        18.56931469009299    4.76348292028832    4.40888303025032
H        17.80446230768785    4.37232628385475    3.72274189969048
H        18.30062177728454    4.48923217918365    5.43138131039942
C        18.71741942517224    6.70341591510563    2.97665464149861
H        19.61810524679527    6.32099658429964    2.50242532197104
H        18.77821647430441    7.78952047608448    2.98579957760444
H        17.84249874846498    6.39653399005785    2.38991745357765
C        17.41939283918429    6.78193404910367    4.96623950863178
H        17.47529461359244    7.86825742029974    4.93920934299256
H        17.35974914564063    6.46552850314628    6.00568533773297
H        16.51641533285747    6.45485116188653    4.43682614190052
Cl       19.78349619692550    5.90077550928580    7.54488521601479
Cl       20.22325972709052    9.09391685083264    5.16901315706162
N        22.54787734924476    6.74185010705046    5.75448300744769
N        20.92224800875727    4.79004299937061    4.90010569413757
H        20.72518386844981    4.66133250952503    5.89662317863904
N        18.62415688961894    6.22497141049967    4.35297964488854
Zn       20.38003130629552    6.92392059478028    5.60598302574968

