119
CSD_code = RIPNUA | q = 1 | S = 0 | Stoichiometry = C56H56AgAs4O2(1+) | MND = 4
Ag        1.06699000804684    3.70980194657916    4.35231899071490
As        1.68845785978369    1.26920545792058    3.48956159975779
As        2.95825437311681    5.23632545164854    5.45250522069586
As       -0.84483031267647    3.61978019447408    6.26611832491057
As        0.31617023791302    5.26064158141112    2.31911515316354
O         3.90334982847774    3.25114821723529    3.34349276838328
O        -1.58708748728696    5.90118360391920    4.39362109393816
C         2.21382396404083    0.23039255780546    5.04981065871873
C         2.05603948456379    0.80350480289026    6.30612332376123
H         1.61478202572649    1.80168396962302    6.37977461727282
C         2.45109699444813    0.12940073056712    7.44866656107936
H         2.31784852789982    0.58842678150396    8.41785156651066
C         3.01211724198171   -1.13234634327831    7.34011024022062
H         3.32346609471323   -1.66400162806550    8.22638764769068
C         3.17188911047489   -1.71585008629358    6.09265387251980
H         3.60648827300313   -2.70120187963345    6.01006678561328
C         2.77428482201163   -1.03869372286268    4.95352951607767
H         2.89083768878585   -1.50362451833455    3.97951140594090
C         0.61673853684306   -0.01592238812686    2.48597181557306
C        -0.01789070726654   -1.09375263164169    3.09310661584426
H         0.12349585595970   -1.26954214816884    4.15434145360110
C        -0.81749047366180   -1.94490846094775    2.34982507395837
H        -1.29799416111201   -2.78668606041969    2.82733979192475
C        -0.99998359177999   -1.72254920165730    0.99521342221427
H        -1.62120360713812   -2.38945493635106    0.41690036272983
C        -0.38647931502571   -0.64121317011035    0.38471526149997
H        -0.53180042347548   -0.45997063314706   -0.66996671947240
C         0.40966580023920    0.21044427464696    1.12854964878058
H         0.87169817418015    1.07128577337809    0.65313106614749
C         3.34582833855510    1.12676338257619    2.43752553084519
H         3.66953556259648    0.08407002476962    2.36849320878684
H         3.14582885333029    1.49021319112441    1.42625788375982
C         4.43742454594195    1.97036348748958    3.07217032162238
H         4.78754886206600    1.50892329671745    4.01025248593472
H         5.30060280248265    2.06435298348656    2.39568385089100
C         4.88434781617330    4.22875448974549    3.62025530763863
H         5.55017321441808    4.33964670184335    2.74953901161623
H         5.49570878221249    3.91181410971767    4.48334771677742
C         4.17112959688118    5.52979273964825    3.93359238609648
H         3.57899037071808    5.82250070357642    3.06075498484069
H         4.90206634717384    6.31391681857969    4.15166490129903
C         4.30238759430517    5.11621614214816    6.87038242380965
C         5.15863452224271    6.17296570879901    7.16103958171133
H         5.05235635396242    7.11044013315906    6.62352327222148
C         6.13103152131313    6.03604284628717    8.13544264386452
H         6.79137863456657    6.86088875885921    8.35914011724068
C         6.25816766263604    4.83999229897014    8.82482812214644
H         7.01711749107129    4.73519242828654    9.58520540779645
C         5.41267554730161    3.78082184038405    8.53930687636920
H         5.51294340448173    2.84858191431007    9.07574288633635
C         4.43730988793668    3.91878626449180    7.56555195019477
H         3.76687647973485    3.09497196858260    7.33353744823552
C         2.30055320294826    7.05089153457351    5.70001856030333
C         1.86164314066887    7.78272579833178    4.60153030452682
H         1.96465119142171    7.36511650294411    3.60011090070432
C         1.30292955051411    9.03748799649356    4.76839025519868
H         0.98187442673455    9.60710270212021    3.90748905464836
C         1.15881167319352    9.57004399425082    6.03902041031229
H         0.72377683228547   10.54939332311434    6.16909596875018
C         1.57294379592700    8.84190397726118    7.14199286807834
H         1.45735808904659    9.25225143151722    8.13441097884283
C         2.13529915123629    7.58874203163849    6.97348116096205
H         2.46358623795018    7.01914304719586    7.83801175195833
C        -0.20443251531896    3.25298252786994    8.07322433280382
C         0.92733751073478    3.94987839656459    8.48638755262374
H         1.38361014946151    4.67204999600408    7.80386502594487
C         1.47604799206797    3.72743506271495    9.73583845128382
H         2.35671682824013    4.27225163954439   10.04432848221422
C         0.89740034786481    2.79606943171631   10.58447132016848
H         1.32380392497091    2.61664594342858   11.55982271828991
C        -0.22432719280548    2.09251756869964   10.17887655472241
H        -0.67239112993684    1.36434865046889   10.83876110843077
C        -0.77266443227055    2.31627949581649    8.92639576230170
H        -1.64449106192633    1.75678011438632    8.60638096411454
C        -2.27353456132319    2.30422636512913    6.07692475647346
C        -3.55482156661277    2.45096836220678    6.59640339023073
H        -3.80868830867043    3.33282393869667    7.17437622760487
C        -4.51294758156868    1.47356041330981    6.38448077332852
H        -5.50586406148007    1.59652753980591    6.79147307815483
C        -4.20128926719534    0.34025989135374    5.65144887751320
H        -4.95234844617445   -0.41677118423777    5.48456355232832
C        -2.92595880888471    0.18008968996738    5.13322155037826
H        -2.67812199722168   -0.70103881165522    4.55961815326850
C        -1.97099872623280    1.15779006634199    5.34563279462324
H        -0.96366003535096    1.04458986826894    4.93546943687867
C        -1.80206658046901    5.28877281005348    6.67002074821802
H        -2.49900142917466    5.16047339837366    7.50325736414735
H        -1.04551949465807    6.02390137118664    6.96113906185084
C        -2.53205893935828    5.78453890308662    5.43535471959925
H        -3.32402053477333    5.07395252863437    5.14185393099312
H        -3.00139855609873    6.76398105706437    5.62084958608969
C        -2.13012339025385    6.40360132244895    3.18841067579555
H        -2.74527557334248    7.29158311783144    3.39898339199538
H        -2.77861713728264    5.64141928815886    2.72667800903670
C        -0.97118593765988    6.74850195035637    2.27108290204701
H        -0.48441488193085    7.65847515666079    2.63076154135834
H        -1.33087617708150    6.90662233041038    1.24957222199281
C        -0.78944024869878    3.94889381519402    1.39765220340355
C        -1.46371367511696    3.00845504840990    2.16786743558558
H        -1.34152958565179    3.02085526669323    3.25317931478081
C        -2.29875730260401    2.07585743321344    1.57921242983223
H        -2.81756899378778    1.35371203081849    2.19325902065213
C        -2.46201147170921    2.07410063528211    0.20358317869488
H        -3.10920508671502    1.34646556613392   -0.26207410345104
C        -1.79636607302330    3.00783863919926   -0.57392540753218
H        -1.92621795505078    3.00917731175883   -1.64640368023071
C        -0.96693493173144    3.94373738617116    0.01997818103169
H        -0.44742398767127    4.67440445802880   -0.59189665659050
C         1.53089885892384    5.73750162705891    0.87152498910577
C         1.63407627317503    7.00352001066386    0.30843763677595
H         0.97902609369988    7.80059516236413    0.64442951092076
C         2.56916762058265    7.25330858068357   -0.68380254894662
H         2.63929043397525    8.23855306863901   -1.12085321640183
C         3.41266187306008    6.24438191751088   -1.11596991425870
H         4.13742070507149    6.44200448489836   -1.89101141139718
C         3.32981383324446    4.98173041593227   -0.54857204316634
H         3.99227685368721    4.19569879097500   -0.88167145648387
C         2.40026677373911    4.73683642618105    0.44357217962181
H         2.32812525748078    3.75676161592579    0.91191766711930

