62
CSD_code = RIPQAI | q = 1 | S = 0 | Stoichiometry = C31H24N5RuS(1+) | MND = 6
Ru       10.61250340123352   10.15288836146155  -11.64827035967247
S         8.85135457612427    9.64003677519879  -10.08163079237014
C         9.76114406203071    9.80710059302739   -8.60879372517183
C        11.02335633957212    9.21627766581120   -8.43918271236239
C        11.69661538417592    9.42299641300374   -7.23136785059027
C        11.14750130494938   10.18589532281934   -6.22248716150893
C         9.88030757217454   10.73116194288265   -6.38339474335374
C         9.19567610883747   10.53672683076670   -7.56213667848697
N        11.75280084350257    8.65669516997816  -10.73454261645437
C        12.46543801112504    7.84433639934651  -11.52718749833276
C        13.06032722128713    6.67447113309961  -11.10384094980332
C        12.90278909315803    6.29283807991683   -9.77832163033540
C        12.20664033926215    7.13906618508208   -8.94278152020960
C        11.65953451981236    8.33272187240021   -9.42968577272732
N        10.03392614707393    8.79993844675597  -12.99160556446073
C        10.64966531920015    8.88010091597743  -14.19773571954986
C        10.32603125730979    8.00737845634488  -15.23762639662243
C         9.35692815677242    7.04238181761282  -15.04385260211983
C         8.73268254833447    6.97035360807844  -13.80419892140053
C         9.10355502631219    7.86078588966553  -12.81581102434544
N        11.92322572191312   10.57154583625897  -13.13127643629832
C        12.87334246470221   11.50825828248337  -13.11690544531350
C        13.61443424575619   11.84753415178422  -14.23032204861119
C        13.36150243633171   11.19068158680758  -15.43037781249140
C        12.38567744863124   10.21409006574403  -15.45539544386393
C        11.67847281012914    9.91250674039329  -14.29040450041057
N         9.37060343501891   11.58128902361812  -12.28569466779418
C         9.17022154963741   12.53486627292038  -11.34403168605108
C         8.12686657594697   13.45453085193452  -11.45854156929884
C         7.28729410082052   13.40134321888703  -12.55326976029198
C         7.52601050798286   12.44119795691506  -13.52918850911948
C         8.57073477438214   11.55557047827647  -13.34892511999094
N        11.12849339575664   11.60647242711927  -10.40275425505763
C        12.17471914308446   11.64407233669102   -9.57772338740337
C        12.30035910380751   12.57012780893081   -8.56110167622857
C        11.28828211605648   13.50568012266391   -8.38151836903668
C        10.22800657895123   13.51274735058800   -9.26658928744640
C        10.17538019070804   12.56135925269919  -10.28563517135527
H        12.68192859509913    8.99835458193621   -7.10261496299140
H        11.69607462172732   10.34428025596558   -5.30738570144306
H         9.43297171293761   11.30956263547283   -5.58986756946021
H         8.21022763917012   10.95319674428324   -7.70670456132977
H        12.58371481802334    8.14851965730802  -12.56143373295726
H        13.62292111970350    6.07370414055252  -11.79946943813458
H        13.31900021274043    5.36846632561031   -9.41058495311671
H        12.05744182194027    6.88634447292168   -7.90536040641416
H        10.83111474553922    8.08170506238070  -16.18630280024107
H         9.09449419500662    6.36124663887297  -15.83722831317760
H         7.97069181823383    6.23499419919688  -13.60579028423418
H         8.63395566410481    7.83189418365677  -11.83992143471506
H        13.04688751712681   12.00278106235996  -12.16891156742540
H        14.37170239863975   12.61111927073510  -14.16310859965438
H        13.91552875120191   11.43648309932006  -16.32180394688238
H        12.16900724841696    9.69218567826581  -16.37248427003560
H         7.96883211891140   14.19251270479479  -10.69007530200022
H         6.46579448340315   14.09295005175098  -12.64933321462399
H         6.90395662597893   12.37027347618665  -14.40609166890105
H         8.76746327181643   10.79016080124908  -14.08996431927259
H        12.93820856478486   10.89143201035575   -9.73756995744676
H        13.16170738470992   12.54899433515917   -7.91449517874237
H        11.33620625186177   14.22168352471356   -7.57723956841542
H         9.44346458706065   14.24352944299803   -9.16474886244125

