71
CSD_code = RIPSUG | q = 1 | S = 0 | Stoichiometry = C30H34CuN2O4(1+) | MND = 4
Cu        4.67949335761812    9.32257690504438    5.85376077952155
O         6.09120262242689    9.81537254849898    4.79607409982176
O         3.59418190100431    9.66671331722632    4.41462490582757
O        11.15393810274418   11.49726771696690    6.03508997021497
O        -1.27184362593612    7.57857935606532    3.00102405108208
N         5.69155094096254    9.26458033359250    7.40435889543728
N         3.33124554499563    8.52197401900125    6.82910442263638
C         7.26644088957243   10.23659998084001    5.13377685116572
C         8.14708352342911   10.79737996510078    4.14591406142460
C         9.40363094109407   11.17471150455208    4.53422675809261
C         9.89380742892996   11.06068059619728    5.85720950480865
C         9.07107148647948   10.53636834379909    6.81732780858388
C         7.75848419683138   10.12662141118717    6.47238260134788
C        11.72972491640584   11.41256295145397    7.32068656350331
C         6.95029670795485    9.60922705177521    7.48931923443598
C         4.98344553167293    8.73256968650987    8.48113111153904
C         5.45702466358293    8.58061479891511    9.78406496182071
C         4.61775731865631    8.08479498461607   10.76181758352224
C         3.30727272989458    7.74129144110399   10.45993232034948
C         2.82460800612375    7.88044983949631    9.17410564342096
C         3.66682800115063    8.35913343025430    8.17077564890217
C         2.18828720361961    8.12569561116260    6.33083917340588
C         1.70290467655019    8.35362757494167    5.04075694149702
C         2.43463229077895    9.16973538974840    4.12316387454957
C         1.82170593590818    9.45493409553504    2.85558681653360
C         0.60441633585699    8.89291012771691    2.58095589421494
C        -0.09933423203754    8.04616047808900    3.47006465319547
C         0.44726605691934    7.78873332362988    4.69710018763169
C        -2.04568470960070    6.73509031955288    3.82598055957642
C         7.69176280148120   10.92962366102110    2.70260620168559
C         7.37604395613347    9.53052878225443    2.15880857624219
C         6.45427399122269   11.83307824389029    2.66248970118197
C         8.76229614703244   11.55339631740069    1.80166352641514
C         2.51736959188049   10.36212794572191    1.85451608765140
C         3.83655988668886    9.69947428874255    1.44469789738785
C         2.76649362823847   11.72842810047462    2.50512219438355
C         1.68481938760498   10.59144162465071    0.58912285017835
H        10.09556475086376   11.59251661727315    3.82250250789894
H         9.38347662331735   10.43846945933315    7.84394346185026
H        11.78243946764375   10.37575921457061    7.66515753199141
H        11.17427623454981   12.01433581931868    8.04588346202908
H        12.73701009153579   11.81062541761800    7.21806950282492
H         7.43354564204010    9.48752359124174    8.45283914790867
H         6.46284530399636    8.85834367328006   10.05295035213410
H         4.98437758760248    7.97608954487098   11.77006106675483
H         2.65681828622623    7.36566038163783   11.23359551936951
H         1.79953332080091    7.61969836204700    8.96813747692444
H         1.52936221232779    7.56931161729384    6.98883345650332
H         0.11636207868984    9.07624680257039    1.63857456972234
H        -0.04579797842497    7.16258958577157    5.42220520165847
H        -2.34875472652592    7.24620003163115    4.74443177448302
H        -1.50496362095701    5.81763470768728    4.07600741100523
H        -2.93003279523228    6.48546523686854    3.24357155531541
H         6.61723277885195    9.04191666222312    2.76235170607215
H         8.27361178209346    8.91560858767126    2.16666274497749
H         7.01480659998472    9.60056788944159    1.13663823752275
H         6.69606461260380   12.81569673338969    3.06242531934465
H         5.64581695851003   11.40719094006873    3.24585243998293
H         6.11738718014074   11.95301438151560    1.63691636936493
H         8.36968750149613   11.62446831787147    0.79030326863900
H         9.65987601362293   10.94145719582611    1.76568363791208
H         9.02065177012971   12.55715987514801    2.12943831331236
H         4.47490514793841    9.55570379340210    2.30887316315626
H         4.35711392798935   10.32473625281421    0.72506639693114
H         3.64364761508508    8.73214237475410    0.98550751200091
H         3.29208273830432   12.37982175804851    1.81228318512796
H         3.36537734453636   11.62790810615204    3.40497940793082
H         1.81991760974620   12.19596240688864    2.76809004315510
H         2.22990381587282   11.26152167840845   -0.07116315047859
H         0.72997211688514   11.05671681408951    0.82012701926959
H         1.51472387391905    9.66238010306675    0.05111747418732

