58
CSD_code = RIPSEP | q = 0 | S = 0 | Stoichiometry = C20H33N4Y | MND = 13
Y         6.30418537017949    3.12783892811004    4.72226829685555
C         8.65503805967715    2.03822244892755    5.37557237461485
H         9.61388519121551    2.39201636922450    5.01895414403179
C         7.90070383736463    0.99936072696848    4.79403329740780
H         8.16962265697819    0.44465115880943    3.90578065921671
C         6.82392340005806    0.70735832153705    5.65719555877716
H         6.14927336058098   -0.13300605549656    5.56542378148468
C         6.91337002531703    1.56629784987837    6.77403638800684
H         6.31529138572638    1.49828946934200    7.67247592160739
C         8.04680790432345    2.38789255642811    6.60108115040171
H         8.45532607082664    3.05556650858286    7.34822204859610
C         4.43853099177329    3.84989227062501    6.05258989193075
H         3.86014055143554    2.96548231776749    6.31681606088142
C         5.11644417081026    4.66802606547714    6.99652565733714
H         5.38631924199976    4.37407246003216    7.99986461047075
C         5.27776226122069    5.93540846456000    6.44530635906095
H         5.72513468616952    6.78452436873177    6.93914874515532
C         4.69474156557463    5.94771729719179    5.16916362791722
H         4.63622170766670    6.80208854132252    4.51362055571928
C         4.16744278031063    4.68504828015523    4.91068925303841
H         3.50233577826877    4.43252373207295    4.09310134769069
C         4.30546612562420    1.09768238245471    2.59141717333746
H         3.72077978780718    1.43132166019910    1.71336034414444
C         3.32254599609711    0.91712398100014    3.75099428072302
H         2.79476485522749    1.84888610773459    3.94580457103520
H         3.86423266716659    0.62571436194128    4.65062882943662
H         2.59321680464910    0.14586051574083    3.51149008816673
C         4.97685379255887   -0.24298780945728    2.25679214865729
H         5.70389784359605   -0.12367953181238    1.45573851336150
H         4.23324327377191   -0.97632779727336    1.95127287169758
H         5.50094732885951   -0.61524668404687    3.13347854621141
C         5.89473978554157    2.86778592520457    2.07198504097909
C         5.29861324485155    3.76836826217621   -0.17496529658844
H         6.08872367871848    4.52191747946803   -0.23247100697422
C         5.08133123502837    3.18811090257383   -1.56890486688166
H         5.98591753978367    2.69481121533491   -1.91552579758631
H         4.82532191263413    3.97973870884539   -2.26802638533415
H         4.27036925312782    2.46162853960531   -1.55940760024644
C         4.02367114011075    4.43315494593327    0.35284881141342
H         4.19077906542963    4.80597578395012    1.36226963665241
H         3.20358963051669    3.71706740146650    0.38062547204233
H         3.73609411854222    5.26479833803291   -0.28580050203835
C         7.58515141661743    4.59431046516777    1.82836195349207
H         7.04839677302254    5.45649352156192    1.39821581273521
H         8.02211526148196    4.01421100854953    1.00166355533270
C         8.71115016537744    5.14414140753610    2.71090919037156
H         9.36824605073176    5.75600194036509    2.08956360800830
H         9.29429944681072    4.31106492780596    3.11089169709421
C         8.17482432447103    5.98823039703013    3.87131683277016
H         8.91934330829941    6.75198206385543    4.14199703207865
H         7.26323431683565    6.50116134774937    3.55271701611532
N         5.28970855857266    2.09440972271753    2.97236866609947
N         6.69655447767575    3.77533167761441    2.61889024507177
N         5.74942144907530    2.68982993755986    0.69984405357131
H         5.21707228074671    1.85066278745333    0.50527460942697
N         7.83857289651702    5.15439789970278    5.03695357374416
H         7.30382919046458    5.72873653288308    5.70025607296343
H         8.71038000618066    4.89495759312800    5.50170147870778

