104
CSD_code = RIPVUJ | q = 0 | S = 0 | Stoichiometry = C52H42Cl2N4OP2Ru | MND = 6
Ru        8.74367844548232    4.44886433271169   18.08118338225564
Cl        9.71888720471946    2.28861581902083   17.96660519152943
Cl       10.84544275754109    5.53924529360866   18.16119889699828
P         8.76951361456026    4.24449900046390   20.40146197257506
P         8.80229704896056    4.51233236810740   15.75422841414270
O         7.67529007090481    6.24208462888053   18.19657134198401
N         4.18685044130617    2.99107389786330   17.97791910956098
N         6.93982146708221    3.74966896098982   18.02989172443010
N         6.00980300231006    4.73457377909450   18.10687639252660
N         4.16759923090441    6.68970922929783   18.28711724961949
C         2.90244677354014    2.60311928785367   17.95229063165342
C         1.89934697365597    3.59079703248409   18.02673943520245
C         0.58065193480994    3.22699239619601   18.00226020502056
C         0.21166954290259    1.87698784807762   17.90358736938888
C         1.16865704129807    0.89877521283131   17.83031795971192
C         2.53181754834463    1.23542179790278   17.85277425201626
C         3.57885036420046    0.28327008234901   17.78108181291724
C         4.87386108216587    0.69918479747936   17.80922263554291
C         5.16026026526158    2.08903140030007   17.91031238670859
C         6.52319278839038    2.52013965920153   17.93980010727813
C         6.45491299527086    6.00060036200268   18.19766781145783
C         5.44892823670867    7.06308671279156   18.30732205079299
C         5.85329051845999    8.39290910741171   18.43598025305329
C         4.87831481752914    9.36652888631159   18.54812785138333
C         3.54508159888128    8.98160425355173   18.52687903623066
C         3.25058391344488    7.63058629367302   18.39376751905759
C         7.24364047959555    3.38633262193362   20.89433744115207
C         7.20058045365729    1.99483203574571   20.83484558086248
C         6.00544011061457    1.32827940189455   21.03502075394472
C         4.83973765124306    2.04131252282192   21.26474559503447
C         4.87081658762978    3.42595327195463   21.29505894822359
C         6.06535232659244    4.09751338943763   21.10854322953106
C         8.71887877004840    5.78094536819206   21.38306891045355
C         9.14866604498853    6.97013219633676   20.80559324263559
C         9.13175580515002    8.14308504344893   21.54030338980431
C         8.69229008813774    8.13486441418351   22.85278637753783
C         8.27262159201718    6.94853929393053   23.43485367408477
C         8.28647146563510    5.77440235475576   22.70681605709279
C        10.08147233114171    3.32337681139155   21.26076945493489
C         9.84180935539330    2.68792973425950   22.47646659531733
C        10.87177964054048    2.03540192353023   23.12689422577159
C        12.14254066970026    2.01269927666485   22.57435336704063
C        12.38290576110140    2.64599685101399   21.36721166595701
C        11.35820235565877    3.30363695358001   20.71043943246908
C        10.13263284410662    3.70307823061673   14.81410270500002
C        11.39619420061130    3.60438226432613   15.38580543943207
C        12.43339536852370    3.02890886509535   14.67373166729700
C        12.21878334465216    2.55673636943025   13.39041629074986
C        10.96139822841257    2.65921918013100   12.81651983982915
C         9.91922301746272    3.23034571511787   13.52160315156029
C         7.28902548415626    3.71024200801913   15.14320378744941
C         7.25666660910249    2.32377918624386   15.01138274860890
C         6.06717175786002    1.68235872150166   14.71713502214475
C         4.89669072984035    2.41166299617584   14.58277297497630
C         4.91693165933984    3.78761015564496   14.74333509778989
C         6.10569292642824    4.43558894096518   15.02469857730304
C         8.75371533099444    6.15172414596562   14.95657346956044
C         8.32645736144391    6.30076740954669   13.63961812103084
C         8.31860586192231    7.55188080353697   13.05348789172008
C         8.73862148966617    8.66102675558234   13.77159380674604
C         9.17081546043947    8.51527181886593   15.07847382653558
C         9.18157919725859    7.26461730524301   15.67135374445714
H         5.00826003359141    4.40606215348063   18.08716021291916
H         2.21099353576842    4.62142059302671   18.10193559839592
H        -0.19170522953403    3.98033243958656   18.05889562665047
H        -0.83554692497658    1.61390139306065   17.88575267595484
H         0.88923071209649   -0.14271949341933   17.75440638446015
H         3.32838244055563   -0.76597241607037   17.70456170666520
H         5.69633544107927    0.00358133304568   17.75664402705762
H         7.30567055281796    1.77549631731819   17.88573750301973
H         6.90618532303336    8.62579920557904   18.44686326086073
H         5.14975546629742   10.40671821995698   18.65125020264327
H         2.75295084160719    9.70860325247813   18.61176226378018
H         2.22458295718777    7.28586463023555   18.37210337444626
H         8.10938983814066    1.44787849997922   20.62208532614870
H         5.97994484910725    0.24896228177373   20.99759859893543
H         3.90446450352014    1.51985334951280   21.40783967602902
H         3.96050378704343    3.98490823240656   21.45600155030000
H         6.08694146088354    5.18055597249204   21.12719745507986
H         9.50456813715838    6.96934031988067   19.78419139050513
H         9.46771245671950    9.06470990680500   21.08776825696632
H         8.67941327851051    9.05015081036257   23.42676316114458
H         7.93448727796394    6.93953816475424   24.46121781633782
H         7.95404933360384    4.85272860919625   23.16309339174935
H         8.85005937703500    2.68713957449580   22.90746877499823
H        10.68116307732900    1.53936878421328   24.06807564595248
H        12.94240888550848    1.49743839036199   23.08624528559095
H        13.37077113174424    2.62668124376867   20.93184326745438
H        11.54375302261265    3.79556657851262   19.76555983148221
H        11.56183901004000    3.97044139079953   16.38961209836356
H        13.41062848236527    2.94724596492603   15.12551866798744
H        13.02834599040092    2.10537942379202   12.83525097736492
H        10.79133728115395    2.28911618455824   11.81534394275291
H         8.93803171300737    3.29193240231728   13.07133228226542
H         8.16860378990946    1.75895451201974   15.15102184496075
H         6.04945865172482    0.60798888038372   14.60596798629466
H         3.96598152353384    1.90793166408980   14.36574053078688
H         4.00235696987892    4.35618423467335   14.65750794368916
H         6.11967460480755    5.51106668961500   15.15576285903061
H         7.99235103907876    5.44016056885719   13.07756684485970
H         7.98474293182297    7.66396057807789   12.03180820757566
H         8.73068454143922    9.63689752024295   13.30795256417231
H         9.50520510802023    9.37722130673599   15.63719698128198
H         9.53052075671112    7.14387355455075   16.68809290601288

