107
CSD_code = RIPWUI | q = 1 | S = 0 | Stoichiometry = C56H40CuO6P4(1+) | MND = 4
Cu        4.28808388196277   16.54006101052574    9.31901013029844
P         6.13455907937312   15.27665173990512    8.99995394930648
P         2.76689876752426   15.13231908171990    8.24074138707345
P         3.81328276245797   18.69837546631732    8.84057231583208
P         3.71954520968657   16.59844172009915   11.58245739965095
O         6.85777894944459   12.01095759428368    8.70913835121516
O         4.73321464816892   11.58907685471766    8.06618990160508
O         2.55818799270659   11.85386653821338    7.51687535354763
O         1.65392125157467   21.03247421642375    9.91855584853850
O         1.45950866842203   19.95239945716112   11.89353932636246
O         1.71125849206757   18.44276914425068   13.55466941696536
C         5.21873142050508   13.78610677722383    8.55396414568830
C         5.76001459850830   12.40263489483045    8.47125849022911
C         3.58295236149699   12.31804913835506    7.90024678542529
C         3.90433136718596   13.73082059769710    8.25321489059981
C         7.13164488085189   14.65286821539482   10.37693655392895
C         6.42616262551349   14.07925638949451   11.43460778314963
C         7.09675799790978   13.68196487791576   12.57352138947162
C         8.46631225864872   13.87632930790979   12.67102401483700
C         9.16205704890847   14.47477113319612   11.63358141051881
C         8.49905124908842   14.87450287769570   10.48676423893819
C         7.22658543710971   15.44521488881734    7.55643525522127
C         8.19216595327661   14.49769438427581    7.22487098716374
C         8.97640765831562   14.69959015453098    6.10366361193861
C         8.79978908190261   15.82751306186451    5.31603408935233
C         7.83553579479720   16.76660839980902    5.64551946374411
C         7.04727084562948   16.57705587536619    6.76535493631971
C         1.24300033574100   14.34937960386871    8.83070920773342
C         1.31292684123657   13.44244365400293    9.88508016500730
C         0.15367065075914   12.89154631768936   10.39535091051167
C        -1.07726290041422   13.27011082548930    9.88340207929858
C        -1.15112278680222   14.20883524560208    8.86634569206668
C         0.00487011356735   14.75608979725661    8.34133348226673
C         2.58324090579051   15.29494159184849    6.43383660711903
C         1.80412963583341   14.42614975877362    5.67621309172706
C         1.71072705848241   14.62488243675320    4.31049046943941
C         2.39109903154485   15.66953552662956    3.70343829808063
C         3.18246060042998   16.52041952275156    4.45847602018175
C         3.28237093285415   16.33094279665392    5.82343529471899
C         2.85494678279843   18.97400291826440   10.34569846079855
C         1.94831428513047   20.12059950054283   10.62340117626621
C         1.95212462748224   18.79748843689889   12.44615786452492
C         2.82600891187071   18.15842955104713   11.42053031564460
C         5.01821044809878   20.05444479754448    8.96209166850449
C         4.65095987456647   21.39725528685372    8.91770287371974
C         5.63078855744267   22.36716501056099    9.02761086122708
C         6.96096233670427   22.00778845407760    9.18638456390580
C         7.32331705197230   20.67113872139676    9.23457974593614
C         6.35316859171624   19.69249326114814    9.12309487243866
C         2.59419938716576   19.15442203500649    7.58181475476821
C         2.88690447131160   19.99258438056130    6.51263649135120
C         1.94106734374806   20.18528087381131    5.52138570636518
C         0.72026494412087   19.53389022131402    5.58370224991404
C         0.43937443065902   18.67508629727610    6.63550476390601
C         1.37734217514281   18.47451224597994    7.62791133933153
C         2.53827837444309   15.62062947970328   12.54795626576255
C         1.18496122399221   15.68466775323236   12.22625225862770
C         0.27928203242172   14.89373798502507   12.90587889297556
C         0.72258474826388   14.01192490805051   13.87873215474697
C         2.07483019492792   13.91205387607326   14.16604423756203
C         2.98697258501773   14.70889415539358   13.49937576531038
C         4.99653822133358   17.14998552314933   12.76129168643910
C         4.73122902766092   17.36353298875038   14.11041736847883
C         5.75900218359535   17.77307057508254   14.94069895940565
C         7.03386921388160   17.97634256072487   14.43448052413415
C         7.28978188971620   17.78146833766466   13.08659431100983
C         6.27021998614211   17.37242895897597   12.24857732217702
H         5.35102709046618   13.94858673862478   11.35189728828547
H         6.55711810295008   13.21997247738457   13.38658826174959
H         8.99051491413980   13.56301488681315   13.56052279913220
H        10.22684803043914   14.63067083042651   11.71725328008811
H         9.03877528793426   15.34768630896451    9.67826655766565
H         8.32553461631120   13.61572583165203    7.83436110440256
H         9.72781619941082   13.97029618822619    5.84237644801510
H         9.41609729512993   15.97363096288734    4.44232214179335
H         7.70042858002467   17.64508688860694    5.03294332430837
H         6.29131801149095   17.30519813051979    7.03919535235813
H         2.27538783962421   13.16383978300826   10.29725016571589
H         0.21052084976531   12.16840318069133   11.19441446537473
H        -1.98145226180020   12.83558357372173   10.28094217086975
H        -2.11215302216229   14.51045305460398    8.47780996621448
H        -0.04375418122577   15.48240184573474    7.54062395668818
H         1.28442830550675   13.60467898450294    6.14732376502222
H         1.10541128635207   13.95697385679784    3.71696337707635
H         2.30887027392307   15.81611959493916    2.63746338993131
H         3.71786682939422   17.32977877953348    3.98596907994020
H         3.89709800419025   16.98749900374290    6.42944240703441
H         3.61416717266189   21.67759408974576    8.80138419815090
H         5.35303225600445   23.40943865225258    8.99210390473109
H         7.71671501647103   22.77313216010053    9.27390970768211
H         8.35909591466610   20.39273898798351    9.35647465302713
H         6.62119361776069   18.64203592584690    9.15461558181704
H         3.84320511158352   20.49459540005279    6.46308952165270
H         2.15781036025752   20.84751181638333    4.69703461628233
H        -0.01452249351559   19.69220916222962    4.80963735345389
H        -0.51161345939481   18.16555408920514    6.67777077812073
H         1.17669794665041   17.79178045455907    8.44849111642414
H         0.84347929276003   16.36015450714647   11.45102676934273
H        -0.77256872630179   14.96390272947968   12.67487274780315
H         0.01280371395307   13.39805735931555   14.41144793146696
H         2.41809981657755   13.21554296076980   14.91606249243340
H         4.04346177597418   14.64408671147987   13.72459258870338
H         3.73541331277911   17.21640434032762   14.50243352996929
H         5.56136960524830   17.93748827900270   15.98888712207889
H         7.82837601428317   18.29353838580922   15.09228634290223
H         8.28038470166372   17.94493028670941   12.69036284817844
H         6.45317239463463   17.21453283072584   11.19126669384272

