35
CSD_code = RIPWAR | q = 0 | S = 0 | Stoichiometry = C11H20ClCuN2 | MND = 2
Cu       -2.45873196178780    3.38376022953830    7.87720293213473
Cl       -2.45866503319384    1.28913940151771    7.87715539680273
C        -2.45875985091630    5.31658740525976    7.87722105191859
N        -3.18306783083373    6.13159997114543    7.07651848278126
C        -2.91242532768955    7.43713185265013    7.37537810080542
H        -3.35991601343745    8.27091349968097    6.88025283495719
C        -3.32863698265262    4.84014127016924    5.01524387443724
H        -2.88418592774569    3.96652052315087    5.48969805543399
H        -2.53388436951838    5.43868331261004    4.57486459103778
H        -3.99237110773598    4.50389055785541    4.22418668313888
C        -4.77027604914291    6.85008795535278    5.33707665303410
H        -4.03208433806776    7.47169497143113    4.83541018288534
H        -5.34229718344014    7.45691407113714    6.03541695917796
H        -5.45607727816933    6.47263029519749    4.58349050808045
C        -5.19820816148984    4.80949860089419    6.70359851919009
H        -4.75692132731431    3.93383168112902    7.17732524118583
H        -5.91262675230061    4.47493828825694    5.95724582220593
H        -5.72627144276329    5.38514590805015    7.46077022590029
C        -4.11248445144097    5.66268626150202    6.04184994790764
N        -1.73442907537766    6.13160120373542    8.67790025298639
C        -2.00509797302247    7.43713380670135    8.37906297283130
H        -1.55761334703127    8.27091524378051    8.87419351334666
C        -1.58887695674066    4.84016584950409   10.73918730231892
H        -2.03332203537254    3.96653980848333   10.26474109606305
H        -2.38363244428707    5.43871961601533   11.17954156440831
H        -0.92515773693727    4.50392759401427   11.53026175595305
C        -0.14721784110743    6.85007789527925   10.41734600778032
H        -0.88540168656032    7.47167530318431   10.91902853453911
H         0.42478329894880    7.45690511507499    9.71899021241031
H         0.53860294184529    6.47262120870346   11.17091273737934
C         0.28067627644171    4.80945827867743    9.05082476827093
H        -0.16064723091798    3.93382027811408    8.57707393631699
H         0.99506916814180    4.47485299799903    9.79718469279217
H         0.80877215214628    5.38510757401479    8.29367303020177
C        -0.80501612052872    5.66268217018973    9.71257155938574

