40
CSD_code = RIPYUN | q = 0 | S = 0 | Stoichiometry = C16H16MoN2O5 | MND = 6
Mo        3.00634686661348    6.66283304451258    2.22464369107903
N         3.21373920314794    5.22180122055820    0.60278832983570
N         3.76518209226231    5.74467159614992   -0.52169678707316
O         2.66246264700688    5.09984371630887    3.12582205737616
O         4.04650157779784    7.51311433037752    0.85672354024155
O         1.50357976146348    7.15496621111281    1.76044479534363
O         3.70381244850567    7.51567837251863    3.44332892939015
O         5.47105858595733    5.44130050521115    2.26325621909143
C         2.04253672481168    3.38413541785020    1.59864885435778
C         2.05643284813253    3.95647363905567    2.89921518585046
C         1.42685481536733    3.27011582757227    3.94837683474405
H         1.44047828025458    3.72777124241659    4.92751470928553
C         0.80653633524178    2.06068097939497    3.72466583297922
H         0.32227002663730    1.54854319097686    4.54253704122258
C         0.79946469658311    1.49211713876463    2.45217099229856
H         0.31322227222912    0.54290381428491    2.28909598303545
C         1.40928750882900    2.14583646680811    1.40744858637802
H         1.40306684366016    1.71494035393050    0.41669659320336
C         2.66096881611025    4.05711644629347    0.50095852101527
H         2.65385820557169    3.57442118863072   -0.47743362379873
C         4.15988989445693    6.97117041029612   -0.31284351389537
C         4.74952383600297    7.75079824150332   -1.40772689533687
C         4.91845957457423    7.20136921459715   -2.67775629021431
H         4.60542529443213    6.18275030073614   -2.84474220165808
C         5.47489490008294    7.95208516718653   -3.70093263064117
C         5.85939941279572    9.26455573445838   -3.43720950204844
H         6.29264387276926    9.85727497505085   -4.23028477611086
C         5.69215922474488    9.81723432222074   -2.17880457865766
H         5.99519126345468   10.83713633937677   -1.99462595885338
C         5.13810016344145    9.06680879542934   -1.15936869964921
H         4.99341576622314    9.47580771167353   -0.16918504203925
C         5.64570888519126    7.37974831896796   -5.07512799232946
H         4.88447862162242    7.78321486249094   -5.74258384579979
H         5.54842295916950    6.29779502474245   -5.06069161232779
H         6.61912491753742    7.64285878657427   -5.48395905122074
C         6.34227452196223    6.05043131492683    3.20796263857126
H         5.78683839920794    6.89379647476542    3.61935465933726
H         7.25532933373543    6.40425627310202    2.71931442196277
H         6.59765860215567    5.34999189392832    4.00816077983359
H         5.90830000025961    4.65775113524355    1.90584380521631

