34
CSD_code = RIPZEY | q = 0 | S = 0 | Stoichiometry = C14H11BrMoN2O5 | MND = 6
Mo        6.16148407091392   12.48559119713594    9.17742886783671
N         6.51920430004483   13.69678934796406   10.93971437703393
N         6.88094767258474   14.97746047461927   10.65681559580140
O         6.11179480228340   11.19094809434638   10.47376793155115
O         7.00845548953192   14.11717980810280    8.56916786251960
O         4.59637086048307   12.97829950562062    9.03961549560047
O         6.76724082040043   11.57104268370252    7.95389209245965
O         8.80042859001091   12.20010426761558    9.61669258691247
Br        9.15767923572180   15.04068263396029    6.97861580804284
C         5.73688378725221   12.16730262952908   12.60860469673465
C         5.70439066472112   11.06207977745187   11.71704368956218
C         5.24561683046813    9.82332634761587   12.18724766983004
H         5.22136461233643    8.99709421012794   11.49085931732173
C         4.83498472016875    9.67873250450589   13.49422438051007
H         4.48112694697217    8.71927333667713   13.84015276034974
C         4.87403009603777   10.75886296290091   14.37484839008093
H         4.55234442405644   10.63193912027385   15.39667807741836
C         5.31949868742925   11.98320721087766   13.93696097578517
H         5.34906283890288   12.82671280732539   14.61103935557315
C         6.17393624387529   13.44880357820233   12.16080041583401
H         6.19434161310633   14.27325838029205   12.87425380034194
C         7.10394871272553   15.11562614659914    9.38504347151648
C         7.50095204448347   16.43584724351259    8.86738275481270
C         8.35331782278235   16.56539243093509    7.77218709777842
C         8.68653314573584   17.81460138251236    7.27505798466250
H         9.35175297997810   17.89090241528385    6.42896539921397
C         8.16541527316970   18.94956675653278    7.87048192080498
H         8.41908880310159   19.92098986662923    7.47484431809742
C         7.33139647612560   18.83875118172458    8.97314225916564
H         6.93474891061496   19.72541819926025    9.44273952261834
C         7.00363476046905   17.59155235266324    9.46806960322658
H         6.35254249696696   17.47896210738966   10.31987320772560
H         8.70096585532240   11.36019547792611    9.14747342372598
H         9.18131541122310   12.80070356018429    8.96221488955182

