85
CSD_code = RIQCOL | q = 0 | S = 0 | Stoichiometry = C39H40IN2RhS2 | MND = 6
C         2.00184328399520   -4.38529642605026  -16.83918148987463
H         1.78139875861066   -5.25119047804939  -16.23942548238656
C         3.27983108363770   -4.01965379596698  -17.16649125399649
C         3.43311306455924   -2.89231151235191  -18.01844678367561
H         4.41259535857560   -2.61017685155599  -18.36738629689960
C         2.38176711925240   -2.13733829050608  -18.43438563837956
N         1.10751662413882   -2.46240272310765  -18.03895492910528
C        -0.06707023377120   -1.84366375913003  -18.31385942491497
N        -1.02181118253363   -2.64400534701562  -17.77341069647133
C        -2.38790939684589   -2.52976008204985  -17.83155854832642
C        -3.16960614109817   -3.49688989871995  -17.27647647478867
H        -4.23714301292415   -3.36834254986559  -17.34044584760662
C        -2.63396118205713   -4.65015552353417  -16.64616150589931
C        -1.27058361384107   -4.75097053966976  -16.57395728226821
H        -0.77179384015508   -5.58475032181031  -16.11181526601401
C        -0.46206929096647   -3.75630651061286  -17.14223832619663
C         0.91274456696286   -3.62723124092775  -17.29132028134979
C        -3.59178710947116   -5.69428578791578  -16.10906792076326
C        -4.42504100249209   -6.23942743032449  -17.27800211779239
H        -3.77433766625353   -6.68154453031418  -18.02940926401109
H        -5.00765867593416   -5.45462845960249  -17.75314144376522
H        -5.11031721037674   -7.00481498392098  -16.92124464429577
C        -4.51433199622079   -5.04987067468915  -15.06516516113239
H        -5.18920740517139   -5.79748170496487  -14.65493711597141
H        -5.11417058073648   -4.25501622903652  -15.49923149146037
H        -3.92773757052929   -4.63094613722271  -14.25001402900204
C        -2.85806641547063   -6.86390413556316  -15.44837249668560
H        -2.26218416607348   -6.52471200625843  -14.60396587911966
H        -2.21248010480729   -7.37224866033253  -16.16057001281630
H        -3.58391562046526   -7.58494404411013  -15.07944655352746
C         4.52072865865837   -4.75650875214463  -16.70476971539752
C         4.18356450311451   -5.92623978844868  -15.77690365236303
H         3.65358265717781   -5.58312981121217  -14.89104430427714
H         5.10310811091611   -6.40843324216357  -15.45312830415743
H         3.57811396727478   -6.66949740863215  -16.29016621160188
C         5.42376231934195   -3.77635985768598  -15.94166776740071
H         5.73180203938224   -2.94464595954049  -16.56966976242370
H         6.31815128181791   -4.28834017440500  -15.59450445474481
H         4.89952109861164   -3.37600026564812  -15.07591297807542
C         5.26401725076769   -5.30618832342797  -17.92999114471064
H         4.61581706426693   -5.97125709949626  -18.49641471184416
H         6.14075998089109   -5.86578971442183  -17.61228891500615
H         5.59177266075048   -4.50737271102403  -18.58907888743215
S        -3.09598601066221   -1.09587539863846  -18.57335027586250
C        -4.44873279641400   -1.84271632167903  -19.46334226258086
C        -4.25169643748070   -2.97991250843781  -20.23281113102145
H        -3.27777238023612   -3.44050501558457  -20.28711584848563
C        -5.31392583295145   -3.50448822098088  -20.94503487808078
H        -5.16292813154779   -4.38850316707366  -21.54552720753351
C        -6.55651962495365   -2.89211408922851  -20.90411205019965
H        -7.38084321544787   -3.30504286589567  -21.46595461584732
C        -6.73793040473988   -1.74313716348656  -20.15212113800973
H        -7.70193782534305   -1.25703783277700  -20.12604393312120
C        -5.68440175683027   -1.21425120433909  -19.42798510445916
H        -5.81073058769897   -0.31856589319747  -18.83876383150375
S         2.61297280637719   -0.81407872168874  -19.58392178920597
C         3.81102288522697    0.20191662419783  -18.76059036249615
C         4.04374680480337    0.16145433948633  -17.39338482292298
H         3.52447306758155   -0.54969110546091  -16.76734085787793
C         4.95176577831332    1.03921001337525  -16.82897707628768
H         5.13189314677578    1.00197703728529  -15.76442171782066
C         5.61865475657526    1.96343335051620  -17.61497981929372
H         6.32358185707179    2.64671917818306  -17.16631916654546
C         5.37436582359953    2.00877610016417  -18.97873731980903
H         5.88885101816768    2.72836494451107  -19.59772704669143
C         4.47539734082311    1.13176347471370  -19.55262216635457
H         4.27510998602650    1.15840499088165  -20.61273789967107
Rh       -0.32298589876962   -0.20801492258302  -19.40044966328946
I        -0.50675827102835   -1.88541692795683  -21.44869527013107
C         0.11035713863983    1.51736528081929  -20.66515562952569
H         0.53295304665285    1.20747532240166  -21.62188702866638
C         0.95489029519312    2.43425526560981  -19.87020609754324
H         1.42720337035257    3.24931652160325  -20.40336699957638
C         1.15213422123572    2.22763876554514  -18.57437885919385
H         1.80300225374473    2.85565311624753  -17.97871851693524
C         0.52156637665708    1.08120774491877  -17.88682652601671
H         1.16226032664024    0.57625533694052  -17.16103711734097
C        -0.86215220485410    1.01165004017682  -17.69822153948714
H        -1.23696305380109    0.44728757376749  -16.84222130080552
C        -1.76288849667096    2.08001956035353  -18.17860426410848
H        -2.28037876905734    2.65593088217996  -17.42194180376222
C        -1.94648708554347    2.28343687280890  -19.47641088529420
H        -2.62042587148329    3.04093706248956  -19.85526203840437
C        -1.25816909831524    1.44305827676936  -20.47892060819314
H        -1.88601658105877    1.07817742606307  -21.29284906192155

