59
CSD_code = RIQDIF | q = 0 | S = 0 | Stoichiometry = C23H32OPRhS | MND = 6
Rh        4.78188260524184    2.95628454521620    5.72879309420849
S         2.82353440899503    2.32716785324593    4.55919030447743
P         2.32972272251679    4.08274821760982    3.75259125197233
O         3.81747882463827    4.59660386846758    6.53757430250228
C         2.49450431686917    6.56138311946718    6.97821177879545
H         2.04194813267678    6.20566441188051    7.90641043673773
H         3.35943917649383    7.17068688668980    7.24739806097821
C         2.91882723966316    5.37829810188341    6.11958817838532
C         2.20668147168528    5.41459087928720    4.92239486572024
C         1.36598333824283    6.59514118972463    4.89282446121334
C         0.52463346080121    7.11839515838354    3.92086041435295
H         0.39702231782844    6.63275918049160    2.96535810007354
C        -0.15858086317697    8.29604977767497    4.17978651129911
H        -0.81516103083523    8.70196946889334    3.42311205233506
C        -0.01275100912972    8.95976126890140    5.38567690593618
H        -0.55618068411835    9.87506157050956    5.56705814566574
C         0.83905028457100    8.45369916946011    6.36009018954136
H         0.96587745786227    8.97134259227763    7.30037608254776
C         1.52139326858497    7.28638948735822    6.10822133623878
C         0.69186716371443    3.79060496478788    2.92536441906994
H         0.43665933336862    4.68110786749433    2.34617717869434
C        -0.35283279084002    3.57385309872500    4.01319661732428
H        -1.32643600197775    3.37402582973206    3.56903924331542
H        -0.43595833923792    4.45434554115547    4.64856417556692
H        -0.07404805837936    2.72271039651807    4.63299215667721
C         0.78733168540906    2.59252139130839    1.98915778522604
H        -0.17636060295805    2.41464026045156    1.51472237921275
H         1.06732721825914    1.70185888732413    2.54773080982254
H         1.52817192531026    2.75766412902072    1.20870477450368
C         3.55962665759977    4.54386779335281    2.40873336765883
H         3.79161785616330    3.61316696615166    1.87523022823762
C         3.00349999051643    5.58352799596541    1.44460825405092
H         3.78160749247873    5.88886664355118    0.74605978042042
H         2.67324148836059    6.46499107085524    1.99151413390334
H         2.16837902656032    5.19259496575488    0.86745102894233
C         4.81933941212492    5.06468574166710    3.09156573438235
H         5.63227280624322    5.16839248121348    2.37518136008069
H         5.14148390223858    4.37273617792303    3.89148475747612
H         4.62464526289749    6.03712023262213    3.54290523199810
C         6.03893192072246    3.07365566550180    7.44260000357416
H         5.53999722150070    3.71092880856575    8.17145581712946
C         6.68443312348811    3.69697142905995    6.38155070881361
H         6.63911113185890    4.78554172940707    6.34446015959975
C         7.85206209776306    3.08133496813333    5.63819825793258
H         8.52332747639232    3.87636565183485    5.30781284532326
H         8.41504704408470    2.45039645775169    6.32713803834003
C         7.40139785203086    2.26665266802731    4.40955581333369
H         8.10032462629401    1.44347822095386    4.22674788775061
H         7.42635711698788    2.90962222054467    3.52669745401902
C         6.00140334123760    1.70815206386753    4.54827601394177
H         5.51303093102287    1.51745852040510    3.59173163166680
C         5.55605016131248    0.98112216668497    5.65025222837392
H         4.71485864114244    0.30525730026248    5.49805878283411
C         6.44656834094062    0.63839603373735    6.82569084095716
H         6.15484859361783   -0.33595942335423    7.22156939239936
H         7.47719061045751    0.55141813681742    6.47921999249270
C         6.34039755929939    1.68379155330648    7.95091145667900
H         7.26562273488013    1.70452901571535    8.53743249451301
H         5.53309860776012    1.39370762975131    8.62734029076604

