92
CSD_code = RIQFON | q = 0 | S = 0 | Stoichiometry = C39H47N3NiO2 | MND = 4
C        29.49891792636203   -0.44693998374411    9.35135994552267
C        28.54879522498981   -1.28379337988842    8.78174790079126
H        27.60065709616667   -0.87496559076643    8.46770920793711
C        28.79819283277476   -2.63059032159701    8.60762000095725
H        28.05062888155419   -3.26320728237363    8.15238544562854
C        29.99860837458702   -3.17418631297851    9.02790395642866
H        30.17252052526274   -4.23023073606771    8.89900543180333
C        30.97312653974128   -2.37894804858919    9.60824708324615
C        30.72112971310574   -1.00364314422794    9.74058106554902
C        32.52344911320269    0.53339661295557    9.67536325253848
C        33.62034888775352    1.17207640448996   10.47639428556265
C        35.08949540178104    3.03446554877910   10.53811670884413
C        36.35697884036256    3.11559024361504    9.93625171303787
C        37.26861833739775    4.04262224363397   10.40691254386402
H        38.24498816586673    4.11939718480826    9.95323337498969
C        36.94559843160855    4.88275187080579   11.45755047496690
H        37.66372362395049    5.60931764359415   11.81075783386162
C        35.70334199154340    4.79099337581448   12.05720883867634
H        35.47063086598163    5.45270015058309   12.87764604480998
C        34.76510242058181    3.87005421684567   11.62131184840582
C        29.18507963008021    1.01531629365906    9.57549106902431
H        30.03996822438343    1.48757967509657   10.07013454938842
C        27.97059125678206    1.15921343993170   10.49713376784444
H        27.06706687490929    0.81050772933726   10.00336366690738
H        27.82953985661690    2.20270675412488   10.77066185181917
H        28.10968412673617    0.57950387354864   11.40566027392079
C        28.92546654969593    1.74347723075923    8.25439231074571
H        29.76605168095453    1.63614306319744    7.57410435353624
H        28.76605223352498    2.80335607038296    8.44028267536266
H        28.03958839735932    1.34590640705469    7.76508429362297
C        32.29669057206323   -2.94956916106339   10.07014080836028
H        32.69453704357920   -2.29927382301061   10.88535509112736
C        32.16724918399228   -4.35864707008637   10.64464220303265
H        31.38995817127912   -4.38140178741033   11.40386290333858
H        33.10999291810467   -4.65644395638167   11.09992620184145
H        31.93024198318214   -5.08377535877003    9.86984501364717
C        33.30718628611864   -2.92792385263914    8.92027239563856
H        32.93903047047788   -3.52277439686109    8.08600663176350
H        34.25922650880403   -3.34043467386609    9.24762027099161
H        33.47739260206096   -1.91270203466998    8.57061739546917
C        32.45882227751827    0.77988506726239    8.21113346627394
H        31.72370483113037    0.14148061990397    7.72489381815331
H        33.44370555609733    0.62397209432415    7.77535009713308
H        32.21112619705874    1.82817679271988    8.05121199267735
C        36.65976821164759    2.19172211969667    8.77800928247196
H        36.12654208522374    1.25192260251872    8.96465483544701
C        38.14349803296191    1.86855649226495    8.61862090105242
H        38.69945134672198    2.73629263256466    8.27099009476386
H        38.27117884308484    1.07434187438301    7.88479758049926
H        38.56749104184946    1.53568658599207    9.56364944711953
C        36.10241805705328    2.80551748491530    7.49001427272870
H        35.03790542944663    2.99195170073612    7.60456440775302
H        36.25735014846142    2.13540945626279    6.64574688241321
H        36.59995643720927    3.75035838230312    7.28013927363968
C        33.38990832451481    3.76249081626645   12.24525357493015
H        33.14968331703754    2.69654437278495   12.31305704191217
C        33.30025997952118    4.33845901451947   13.65729556569777
H        33.37563393243824    5.42358558224492   13.64415153872958
H        34.09307049518682    3.94005739084164   14.28762088357205
H        32.34142013216550    4.07650446801924   14.10424175651854
C        32.35523533396419    4.42946089179209   11.33299171644469
H        32.55954806014309    5.49572905356803   11.25351191075214
H        31.34756040343268    4.29593621624003   11.72559436853967
H        32.40261821726838    3.99522099453602   10.33692278216318
C        30.86300073019500   -1.22668503413135   12.81693657632566
C        29.93995390759694   -0.17829679913909   13.31877540549850
C        28.70496699818600   -0.52715227653315   13.86294005264081
H        28.42359295104481   -1.56915533581453   13.89699313363207
C        27.86368233740046    0.45923130409785   14.34383201696652
H        26.90547709213552    0.19168768479902   14.76389211663608
C        28.24565693182313    1.79064003910023   14.28513749753750
H        27.58319171378952    2.55649591804954   14.66049598145595
C        29.47352274813084    2.14420991006860   13.74420180410052
H        29.76247901990368    3.18402304555558   13.70050372596525
C        30.31892266865776    1.16461971258445   13.26313011316541
H        31.28833018776411    1.42633454705464   12.82944961411171
C        33.64626213162696   -2.17371745630373   14.09107588120597
H        33.11282991122148   -2.94556108751538   13.54728653522584
C        34.67542960884208   -2.50049347759788   14.95663832352733
H        34.97561082624073   -3.53005538249751   15.07265952367523
C        35.30573648004860   -1.48782905108250   15.66196850311943
H        36.11516999165346   -1.70841950019224   16.34134029053845
C        34.86931149427618   -0.18561688622514   15.47687439544378
H        35.32665489143508    0.63491150396489   16.00661197068193
C        33.83558740886603    0.05683693288361   14.58967667767374
H        33.48096956170305    1.06577228566480   14.42317244526862
N        31.72919443879955   -0.22068985708375   10.34437921229786
N        34.14252665762678    2.21998490865950    9.94642976871640
N        33.23703638575148   -0.91745527980144   13.90290179645833
Ni       32.38626774879382   -0.51371066451111   12.20592161360666
O        33.91374181038471    0.60075091373453   11.58043445274126
O        30.65098891025438   -2.41194844235908   12.86211839585830

