101
CSD_code = RIQHIK | q = 0 | S = 0 | Stoichiometry = C32H56N4O8Zr | MND = 8
Zr       10.97658974611693   13.64361306288622    7.69365098269177
O         9.74315468449695   14.18898052030302    9.22082738384610
C         9.56011160311809   15.30378749508550    9.82242902226062
C         9.48038548487331   16.52708299861239    9.19470399719909
H         9.32053893842293   17.40273567418881    9.80603116094244
C         9.49336915871837   16.69134132905998    7.78576118702220
N         9.69228400466749   15.68112144928911    6.99298307007259
C         9.36686713359744   15.25830888345331   11.33217121248334
H         9.12297387885290   14.24363178834808   11.63904109993129
H         8.57244308349541   15.93367412874595   11.64077840786199
H        10.28422843919435   15.56335597891895   11.83415356324554
C         9.21733162850354   18.10055267559534    7.29238271940194
H        10.04073096367496   18.43924430811928    6.66513794938391
H         9.12035529732326   18.78362327491492    8.13118995363635
H         8.29997535858138   18.14287926228679    6.70922058667141
C         9.40858950819187   15.85299894980636    5.58042570862320
H        10.01788551254463   15.14928640990049    5.01207723972379
H         9.59920941561237   16.86826747089140    5.21134566286223
C         7.94524034901366   15.48134398260883    5.30818699087787
H         7.73991100436120   14.52023023644804    5.80419731390692
H         7.25683506277489   16.23592095629467    5.72209918634072
O         7.75767415465075   15.37155566320365    3.91255974385333
C         6.48324258565910   14.89625744059269    3.56948769134694
H         6.30194354043795   13.90233273809443    3.99757939719634
H         6.45242478635802   14.83675068834219    2.48302740510307
H         5.69521444026257   15.57596841698093    3.91914348568939
O        12.20291719605613   15.04425017482492    8.53522126780024
C        12.49323730088255   16.26899233536621    8.31716069973447
C        12.65865830664108   16.81843586351104    7.06335728769262
H        12.91001669029601   17.86626698967219    6.99481648538013
C        12.59259307071216   16.06599807075009    5.86497119000305
N        12.27132648350797   14.80511557078445    5.87820470255111
C        12.72529163080671   17.16395043318913    9.52554458233670
H        11.92125804061084   17.89195556167450    9.60289630711754
H        13.66500612421585   17.70364511044877    9.42763413429932
H        12.74283241603958   16.56203299405128   10.43035050246124
C        12.93386201179941   16.82724446710992    4.59614859144656
H        13.79617390698055   16.39434995310998    4.09438033189293
H        13.15850483112630   17.86480829810241    4.82610122709583
H        12.09103238826977   16.80224291579999    3.90599740486425
C        12.40830085458291   14.04594849964327    4.64881698353489
H        11.73067565969885   13.19276618474332    4.69979976777074
H        12.18416703524534   14.62501542896031    3.74300720387076
C        13.82919186891682   13.47726498086986    4.53620701213699
H        14.56095710762781   14.27009761919379    4.31303034977044
H        14.09927668649462   13.02546514734182    5.50271770089204
O        13.84927963623356   12.50652322736667    3.51002240724234
C        15.10193674105300   11.89088785489527    3.36912254283057
H        15.87646179249501   12.61977633515995    3.09687268862938
H        15.00296028670689   11.15528598620284    2.57296366278294
H        15.40548812973056   11.39000114712683    4.29689992620016
O         9.74301196092492   13.09827654361908    6.16660703927027
C         9.56001216756935   11.98348460811811    5.56496364126661
C         9.48041052502891   10.76015677889657    6.19263989294648
H         9.32061692139898    9.88451110146479    5.58128857822282
C         9.49345960254642   10.59584899830371    7.60158385089821
N         9.69231695020351   11.60606078815348    8.39438822640520
C         9.36686095008908   12.02901737579155    4.05521414450307
H         9.12294564410613   13.04370701792921    3.74839842086466
H         8.57245680008283   11.35364395278324    3.74656583262827
H        10.28425184847231   11.72401857627858    3.55324508116719
C         9.21731885867258    9.18664646830308    8.09493191884992
H        10.04067594474664    8.84791890466881    8.72220712853815
H         9.12038958702193    8.50360570735839    7.25609863419825
H         8.29992088850506    9.14431020219076    8.67804118929224
C         9.40860429277523   11.43416759606393    9.80693951770773
H        10.01792809354821   12.13784302352311   10.37530637309933
H         9.59917630704257   10.41888013144609   10.17600451485807
C         7.94526801670459   11.80592255059744   10.07913308455924
H         7.73996793839068   12.76699957824720    9.58302966017736
H         7.25682640685213   11.05132839144264    9.66530710160613
O         7.75770614630247   11.91585039590021   11.47474552648532
C         6.48320213082368   12.39102071061128   11.81773277939586
H         6.30185093915239   13.38496749313166   11.38971540277675
H         6.45226834170606   12.45043650681344   12.90419115329693
H         5.69526191848812   11.71127326161218   11.46794838870829
O        12.20286767053145   12.24293647485900    6.85203824467267
C        12.49320662006914   11.01820750363994    7.07011008823974
C        12.65868525405233   10.46879233518981    8.32391603721094
H        12.91006786680655    9.42096854015364    8.39246066914938
C        12.59263746298195   11.22123831685692    9.52229231872005
N        12.27137037794735   12.48212760529818    9.50906380157141
C        12.72529108132841   10.12323977844164    5.86174036234993
H        11.92124299855435    9.39525139289879    5.78439007779623
H        13.66499274134088    9.58352700931704    5.95967294323628
H        12.74285300275648   10.72513683997585    4.95692165348626
C        12.93383546478258   10.45995747424413   10.79111427846778
H        13.79615048241704   10.89281778886701   11.29290249642223
H        13.15844530434938    9.42238371901487   10.56116769269856
H        12.09099227926339   10.48498707627389   11.48124790215072
C        12.40831170785247   13.24127528272411   10.73846979614824
H        11.73068682357612   14.09446044418538   10.68749550169560
H        12.18416844056936   12.66219304958045   11.64426800509522
C        13.82920902105787   13.80994288540480   10.85108687994198
H        14.56096705096097   13.01711629161198   11.07431403896351
H        14.09932251441180   14.26171045473462    9.88456863900805
O        13.84927314109023   14.78071868450271   11.87723865329410
C        15.10192372516549   15.39637841465384   12.01811001090170
H        15.87647525259808   14.66751253194746   12.29034464062723
H        15.00295182449699   16.13197679848633   12.81426965953758
H        15.40544675005310   15.89727971140101   11.09033144456383

