87
CSD_code = RIQHUW | q = 0 | S = 0 | Stoichiometry = C26H52N4O4Zr | MND = 6
Zr       -2.02300497318142    3.24388074839522    3.91467417378001
N        -2.90350396131611    5.05959292351875    5.06375361652113
C        -1.92276110808535    5.57413208997039    6.00148430087822
H        -2.16365523248413    6.57636046972766    6.37669087928560
H        -0.95958643798766    5.63142633118051    5.47809282952535
C        -1.78649528872382    4.60539275076398    7.18616032031816
H        -2.68447464867272    4.65494787916723    7.80650482453084
H        -1.68972045159406    3.59123191058018    6.77621401475166
C        -0.57861281897989    4.94030881141763    8.04959360856136
H        -0.45344887839333    4.18312032311059    8.84033394556108
H         0.33540139645924    4.94662449338502    7.43553150823928
O        -0.76910257161815    6.21204547640126    8.63820584613147
C         0.31044196173838    6.61583583771937    9.43489681435884
H         0.47915840327610    5.91629723435051   10.26398398158063
H         0.05750531414224    7.59577862795215    9.83485779988565
H         1.23489052003013    6.68868262312115    8.84732708995681
C        -4.59456887006089    6.55409656947970    6.08421199349759
H        -4.32877725192382    6.29929666904922    7.10777275052083
H        -5.67189966686985    6.67874436160045    6.02750819472963
H        -4.12735044702390    7.50783782629104    5.83862428630190
C        -4.13214374076406    5.48145983705930    5.11719634502459
C        -5.12844938393580    4.97549857472131    4.24253976793663
H        -6.11847509507383    5.39817893495057    4.33129037154412
C        -4.96158487508722    3.96801692422991    3.31265156757002
O        -3.87739932518012    3.34196079615721    3.06178206605597
C        -6.19260989001398    3.56013965135461    2.51226034449988
H        -5.90090661423350    2.88920140598287    1.70747138236637
H        -6.69420936118224    4.43141996596075    2.09709309477296
H        -6.89637303976402    3.04125434654346    3.16064372459685
N        -2.59472626271709    1.91310933001070    5.37285404499480
C        -1.78799443175932    0.74378245690485    5.66784091810999
H        -1.09305493457007    0.57405197762926    4.83294935192442
H        -2.41358444924363   -0.16014786194873    5.77886686499284
C        -0.95228287159476    0.89604663416967    6.95790304746334
H        -0.25972209031817    1.72699321162464    6.84115074377757
H        -0.38729558503596   -0.01334688589496    7.15546865435008
H        -1.59927401561231    1.09409070681763    7.81086310910495
C        -3.90798630478348    1.85712547285025    5.97352862694951
H        -4.31583153948650    2.87761013122661    6.03391925739028
H        -3.85825435568551    1.45762765652761    7.00531425470100
C        -4.91545997901201    0.99181405726770    5.18245123389651
H        -4.94872641701457    1.33579668914630    4.15012868095662
H        -5.90924079020361    1.06496859494345    5.62117820553502
H        -4.61241662192119   -0.05359121450299    5.19108479266457
N        -1.14252541026977    5.05959268804036    2.76553284522198
C        -2.12328539084576    5.57412166867479    1.82781059075358
H        -1.88239771397793    6.57634363839458    1.45257997276206
H        -3.08646673819240    5.63141232644523    2.35119717770916
C        -2.25960685537386    4.60540405520332    0.64313094590925
H        -1.36160802414184    4.65490474898266    0.02281058092462
H        -2.35644478787830    3.59125040404395    1.05307843927684
C        -3.46744924815875    4.94035942129089   -0.22034912468760
H        -3.59266711673801    4.18317826240394   -1.01108739505018
H        -4.38146639114301    4.94676015296543    0.39369762481719
O        -3.27684953051676    6.21207935491223   -0.80896163576858
C        -4.35632790202012    6.61592789335472   -1.60571141725171
H        -4.52505067363525    5.91638875077603   -2.43479596422602
H        -4.10329907778261    7.59584650771977   -2.00567197985524
H        -5.28079998834156    6.68885001795792   -1.01819104718211
C         0.54852669026154    6.55404282723413    1.74497659874617
H         0.28272226443445    6.29920355090717    0.72142701031763
H         1.62585519510141    6.67867156885497    1.80166828038849
H         0.08133426993739    7.50779839991585    1.99053611887342
C         0.08610864805490    5.48148192665189    2.71208108710169
C         1.08242728980973    4.97553593281587    3.58673095116182
H         2.07245934989891    5.39817602873446    3.49789700044661
C         0.91561700620347    3.96800914495265    4.51658771017408
O        -0.16851917136696    3.34184070710343    4.76738412423739
C         2.14663230796037    3.56012653362596    5.31700333791143
H         1.85480774831809    2.88938030807374    6.12213859955269
H         2.64849382057190    4.43160217145066    5.73183367703533
H         2.85022772101653    3.04081750835746    4.66847934907442
N        -1.45123677879401    1.91313583446308    2.45646994911055
C        -2.25790337058057    0.74375978411664    2.16148016553748
H        -2.95278038778989    0.57396178615796    2.99640424978625
H        -1.63227134638658   -0.16013651893447    2.05039791190954
C        -3.09374840710367    0.89599798452493    0.87150081562151
H        -3.78633947548729    1.72691434570487    0.98830660593896
H        -3.65870692396127   -0.01341938131628    0.67395988309906
H        -2.44682716703128    1.09407139220604    0.01849622999962
C        -0.13800136513521    1.85720205380264    1.85573641061888
H         0.26979690842140    2.87770452303565    1.79532653312191
H        -0.18773048439200    1.45768212277321    0.82395730573348
C         0.86953154715172    0.99188990089581    2.64673563344292
H         0.90278108375597    1.33585477088240    3.67906287006464
H         1.86330521772838    1.06511377947448    2.20800593942379
H         0.56654964387471   -0.05353422852508    2.63809280813405

