72
CSD_code = RIQJUY | q = 0 | S = 0 | Stoichiometry = C31H33N4O3Re | MND = 6
Re        5.10469782233244   -0.17253812367577    1.80989683014846
O         2.70202482567719   -0.79738106972461   -0.05953324591094
O         6.48682778199017   -2.87638191987170    1.20007359023691
O         3.72107691004365   -1.65765031771389    4.15279103747244
N         6.41685569388038    0.75544259819115   -0.98177624071706
N         7.13289002898693    1.99610279909417    0.61127829004864
N         4.88379355879369    2.05356529517509    3.83936918993656
N         3.34487838892830    2.56377903472409    2.44077737757740
C         3.62156192981851   -0.51651327758200    0.58048338228908
C         5.99708474908078   -1.84581536744431    1.36229292245214
C         4.21814595626491   -1.10837068953370    3.26855479163230
C         6.29760575400799    0.96105644417857    0.35322120547778
C         7.29479464422137    1.64310586174504   -1.53949213454480
C         7.74771235186830    2.42443802131724   -0.53415438917239
C         7.47892619775163    2.49119297035908    1.92214984582677
C         7.89166885844028    1.33885572653710    2.84663789657328
C         6.71303712965175    0.49762915224106    3.36582259885389
C         5.96320170321884    1.30295181253188    4.44731683313992
C         4.33002620037124    1.66772385261426    2.67140292038158
C         4.26180013967937    3.16086305586234    4.33580164513169
C         3.28954966312579    3.48920585542190    3.45167040562011
C         5.83649330566373   -0.30981162983946   -1.72652951455561
C         6.55263556022991   -1.49845632632893   -1.86275354822855
C         5.97589308626371   -2.53220711967256   -2.58511504399435
C         4.72858970505122   -2.39646353303612   -3.17590373312849
C         4.06259052015764   -1.18383836574809   -3.06253323956916
C         4.60170460410013   -0.12830729887043   -2.34613904038243
C         7.93050110724438   -1.64021641436492   -1.29015517785990
C         4.10119175327026   -3.53854670769241   -3.91417276913401
C         3.89701291509414    1.18878067341745   -2.24911144821850
C         2.45264593520450    2.56890931059956    1.33503495964103
C         2.72756413107157    3.39547294986928    0.24686958992908
C         1.82531067720219    3.42520696470534   -0.80426760828783
C         0.67711911096279    2.64453305215612   -0.79229461273193
C         0.43386254994327    1.82769970807444    0.30160259671263
C         1.30489681320094    1.77953172495803    1.37954312343191
C         3.98128172919927    4.21846749728528    0.22258223121774
C        -0.26643635312779    2.67636638981134   -1.95550130260848
C         1.03016111681973    0.90945784545766    2.56544097668991
H         7.52080255068426    1.63863607771026   -2.58601069207402
H         8.44622208903916    3.23635132767941   -0.53971801863576
H         6.63476153759198    3.04087797128802    2.35028710446432
H         8.30995125691331    3.19235636298943    1.79811131139593
H         8.44552871089475    1.77435767199772    3.68884207149440
H         8.58496842621055    0.69420668212617    2.29865282977663
H         7.17986371199173   -0.34823987368547    3.89375379274892
H         5.52894364743028    0.61790566254016    5.18592812360136
H         6.61516921654663    2.01041380348529    4.97930068201178
H         4.55159590861489    3.62287435550182    5.25772770545284
H         2.57206028699402    4.28451065630521    3.45529566491313
H         6.51303512299290   -3.46438090080298   -2.68363641854123
H         3.09841155301925   -1.06085971627895   -3.53396925248524
H         8.18505920175826   -2.68919402282322   -1.16841177724499
H         8.00900866488171   -1.15167983137198   -0.32122505494729
H         8.66151886154884   -1.18429638406516   -1.96082292109809
H         4.85258925617818   -4.25308883931499   -4.24076322168471
H         3.54695053680102   -3.18392760260706   -4.78052018728298
H         3.40211547872798   -4.05671168640806   -3.25767957406599
H         4.40235016758659    1.93694094516483   -2.86202703264996
H         3.88907422101736    1.54124758137706   -1.22018876273502
H         2.86912208611970    1.09915005783524   -2.58772456823808
H         2.02578970845265    4.06240309961067   -1.65391148049910
H        -0.45371448288511    1.21248230990091    0.31885777859622
H         3.95884841699280    4.98286522399017    1.00010746570536
H         4.10002059356681    4.70913322979028   -0.73990777672383
H         4.85012577123322    3.58551433995478    0.40093487176309
H        -0.41859572927429    3.69676822441357   -2.30188078210571
H        -1.22818942684663    2.24618840708511   -1.68908756506930
H         0.14554497009055    2.10058435931758   -2.78443129763892
H         1.82084435393905    0.16590316232313    2.67444987727605
H         0.08240351734206    0.39144557514443    2.45057445806434
H         0.99924125816173    1.50052133459800    3.48121145508139

