93
CSD_code = RIQJUW | q = 0 | S = 0 | Stoichiometry = C50H35N5NiO2 | MND = 4
Ni        0.10685823440384    2.41121819191020    3.60476857193779
O         1.36455414460890    6.05715146985640    8.63835983571611
O         1.68247607332147    8.26718623769858    8.33660722721360
N         0.35203228422851    0.57028043714582    3.03294570667484
N        -0.66482224191009    1.80264550446367    5.26821834005427
N         0.06067713621819    4.24751553908920    4.26144938876601
N         0.66762992541675    3.02450298758321    1.85173173564491
C         0.01759294025135    4.62065233975472    5.58981508622082
C         0.46520101008486    5.98448838457901    5.71119548039944
C         0.52832440583245    6.48222593298323    4.38197691169325
C         0.29184681308052    5.36354212115466    3.51270583905002
N         1.10605782351411    8.10043540346496    5.73279339824450
H         1.43513040321803    8.97474489731730    6.11730705565958
C         0.35393637516830    5.43373488065984    2.12995844420991
C         0.35227571492270    6.76785195021442    1.50168742131852
C         1.43891112185431    7.21730436871148    0.75822024206772
H         2.30247215526572    6.57877598656175    0.64201510440676
C        -0.74706807402606    7.60518136336152    1.66739147400945
H        -1.59226881825722    7.25889696528456    2.24385873585629
C         0.32159830007989    9.30180737355753    0.35073318268437
H         0.30946544599731   10.28434370987495   -0.09758607803058
C         1.42272404038185    8.47762228404823    0.18827791866284
H         2.27305436616052    8.81892372816188   -0.38414719593882
C        -0.76333588271700    8.86202141630071    1.09136358176178
H        -1.62474419636450    9.50119600170781    1.21964760172956
C         0.51261723889428    4.28664663280101    1.35522966018768
C         0.73042223824677    4.29665075449630   -0.06056176271207
H         0.61242107965542    5.15413641262937   -0.69355729774946
C         1.11001315890923    3.04333733486653   -0.40331147761093
H         1.36201418526842    2.66505739675671   -1.37484841100602
C         1.07828917235620    2.25920477139196    0.79454688462658
C         1.41485071903494    0.91146958068467    0.85265321514739
C         1.46957958285645   -0.79203697902550   -0.96945580596645
H         0.51961995586539   -1.16911461395100   -0.61944852340312
C         3.26682482837722    0.78770490293380   -0.79365904514882
H         3.72745513193059    1.62459925368680   -0.28904133245745
C         3.88036131708630    0.21031892388037   -1.88988294593937
H         4.82190534546045    0.60202532907659   -2.24645117920311
C         3.29062772237786   -0.86680333202371   -2.53044334295127
H         3.76954074331924   -1.31622759575900   -3.38779042508180
C         2.05764923427840    0.28796265287588   -0.31694798879962
C         2.08252720466405   -1.36310177459295   -2.06965551645161
H         1.61477368687682   -2.19791913873398   -2.57108157505853
C         1.09429493282479    0.13891156008171    1.96685952391418
C         1.34054613291964   -1.26705757096554    2.07088655524749
H         1.95003909548686   -1.83593528929778    1.39652175265655
C         0.66094531573454   -1.70191192786669    3.15915702646737
H         0.60381016222252   -2.69701034448984    3.55537037883021
C         0.03156399884878   -0.55542575881764    3.73750121006170
C        -0.82356650767848   -0.60142837721958    4.83796758123259
C        -1.29350047105865   -1.90874125898174    5.32449859144388
C        -1.07944737206376   -2.29869979080523    6.64403654066040
H        -0.54752723859870   -1.63672687574883    7.31179524896303
C        -2.40248337114038   -4.00755103706593    4.91447954382324
H        -2.92109444418955   -4.67190269064192    4.23867404485028
C        -1.52189462206236   -3.53012155096645    7.09090656439854
H        -1.34572248884228   -3.82397909954165    8.11549038300162
C        -1.95555948496477   -2.77975047040304    4.46268463490532
H        -2.12981701010430   -2.47940420453433    3.43968039664952
C        -2.18716022794047   -4.38636758674300    6.22925369733693
H        -2.53491067626566   -5.34654265916069    6.58068047766798
C        -1.20136035070410    0.56112992660924    5.49829628195446
C        -2.08194188554837    0.60729146207679    6.62511231074322
H        -2.68023425620033   -0.21240263920165    6.97167599741031
C        -2.00374293253668    1.86214653188131    7.12849637001676
H        -2.53444910412065    2.27218131276258    7.96499601126475
C        -1.08669088925419    2.58601059087466    6.29982381310119
C        -1.72462838375532    5.69821473562556    7.87561532345977
H        -1.91684979346109    6.22345274364463    6.95179919519185
C        -1.02993325027190    4.49252344819866    7.84768595100345
C        -0.63962669992750    3.88788221954643    6.56434555592449
C        -0.81515285361208    3.81307824203872    9.04403786459084
H        -0.26416727883514    2.88381778309880    9.03099623686899
C        -2.20140046598384    6.20613947016070    9.06925437383131
H        -2.74436303688897    7.14004741847519    9.07692276760541
C        -1.30265385705993    4.31676764482055   10.23511493934543
H        -1.14164894938640    3.77361769894875   11.15631579684709
C        -2.00271153470212    5.51250392011375   10.25102779450738
H        -2.39240012334302    5.90188465811721   11.18071625940135
C         0.92223142356228    7.80312025710952    4.43186721074461
H         1.08296946085597    8.52200612968385    3.65386764847515
C         0.86900022506976    7.01832760408654    6.55020391178852
C         1.30692110915407    7.18279576793536    7.92841555436442
C         2.05973182898167    6.13835822812236    9.89572903089165
H         2.95730345252601    6.75123734845397    9.73032797185413
C         1.20386536581320    6.80327097259966   10.96709295030893
H         1.75660059058267    6.83543014741717   11.90199787391560
H         0.28390251411876    6.24377752383490   11.10974995461091
H         0.95942404003536    7.81917258935289   10.66856967142409
C         2.45332167354788    4.71809972749074   10.27191929612919
H         3.07642142310635    4.73345266576040   11.16156419981868
H         3.00515447733802    4.25505241387154    9.45824246021095
H         1.56202029159721    4.12959640219861   10.46678712983625

