51
CSD_code = RIQJAC | q = 0 | S = 0 | Stoichiometry = C24H22CrO4 | MND = 9
Cr        2.87551017170337    4.10521684576370    2.90837268204807
O         5.54892309981975    3.02567381588629    2.17633160667245
O         4.03903508918049    3.19263745236655    5.49102266993837
O         4.59231118763811    6.45040031954307    3.56110605880526
O        -0.04227944110423    7.07000623473186    3.47784526553024
C         4.49820937848514    3.43424994505020    2.42034228628886
C         3.52865600578700    3.53848256234709    4.51306354989328
C         3.88861317949471    5.57883611047110    3.29601248018487
C         0.72002655606418    3.54640272645246    3.34973011697887
C         1.21228404114855    2.59640842494105    2.44194314516820
C         1.80856802749268    3.00697573231496    1.24371067033116
C         1.82265055261640    4.36894404761930    0.88281283708078
C         1.33430102582486    5.31418216026752    1.77459197607082
C         0.77452756328260    4.92015775602100    3.01828250971567
C         0.20154045997897    5.95172431156974    3.89470416449844
C        -0.08283450729902    5.56499074395261    5.33709679457683
C         0.39164138358290    4.16253847674573    5.70968286626128
C         0.03158649061409    3.15507326117658    4.62104882405748
C         0.48842026966503    6.67339187299020    6.26063317411340
C         0.06896112184564    6.42292318471724    7.68725686835789
C        -1.13813068254671    6.94595071571957    8.13837534695983
C        -1.57331151547667    6.72594687943338    9.43044054568776
C        -0.81266996986560    5.97413825826982   10.31792051863567
C         0.38974058137850    5.44892501434523    9.86719896772492
C         0.82506240920127    5.66603093003927    8.57176687392672
C        -1.29350142968806    5.73446997775813   11.71692106985067
C         2.00463859689990    6.84972571030464    6.08796989057805
C         2.52224625304656    7.91860983870366    6.99752220778127
C         3.55813198519169    7.77779392695231    7.80164722530090
H         1.10096211888206    1.54006606539387    2.65972067095288
H         2.14651531799913    2.26280347138833    0.53191295649508
H         2.18778576759306    4.66701820987711   -0.09196182497065
H         1.28224940860281    6.36450922628424    1.50891040364001
H        -1.17653627004249    5.60072942723308    5.44421215257901
H        -0.06342308305622    3.87160376177467    6.65760495756291
H         1.47519420368520    4.15214113919167    5.83615221360542
H        -1.05346373027371    3.15354341522680    4.46162113059210
H         0.32706753881533    2.14764277228011    4.92235107122191
H         0.01890865834416    7.60768499672650    5.93134907282884
H        -1.74299498034861    7.54061964634722    7.46740350508206
H        -2.51294135346949    7.14730057919279    9.75922116293758
H         0.99984816876422    4.86227602492926   10.53942497700304
H         1.76745034643995    5.24488379312717    8.26063598477039
H        -1.65882496523803    6.65887419209245   12.16049931944020
H        -2.11612626174680    5.01867645670766   11.71459674332591
H        -0.49616087624246    5.33704346213290   12.33984138017544
H         2.55180911631110    5.92350775404329    6.26472112868515
H         2.19531313527865    7.15050471759917    5.05280400060103
H         1.98561642383902    8.85768359914000    6.95690410612035
H         4.11426611252963    6.85609467095955    7.85398094211368
H         3.90602731935365    8.57938538190210    8.43024075222455

