41
CSD_code = RIQKUZ | q = 1 | S = 0 | Stoichiometry = C15H17N5O3Re(1+) | MND = 6
Re        5.87307759753893    6.37212146417584    1.04234828042614
O         6.80691848882902    8.17551468908595    3.38435612981850
O         4.54291260011839    9.00889506148685    0.09353388007986
O         8.46884640519243    7.40358778912750   -0.29465192976590
N         3.93501492745937    5.38497222978832   -1.37294423946619
N         5.89617274506722    4.54756665610156   -1.56950515410125
N         7.35136454780310    3.38081966271928    1.10655875767117
N         7.09949223766564    4.19568766110398    3.07485822114402
N         4.20543677437652    5.71305526712905    2.02020389899319
C         6.47550162671808    7.43327798276660    2.58220986788168
C         4.99998153326713    8.01890888165374    0.43013224135144
C         7.50705586028919    6.98312270803737    0.16494779538343
C         3.27149974856241    5.37855054738947    2.60433847260252
C         2.10682847837550    4.98080682402468    3.32495256708570
C         5.13593016343069    5.31862777553112   -0.76102504722845
C         3.94599915605468    4.66519698384558   -2.53739597524432
C         5.18184090392132    4.13295554004539   -2.66001435633156
C         7.25093324800196    4.13204997529362   -1.31341146291444
C         7.30584585338667    2.99640619575951   -0.29178770248721
C         6.83812337162728    4.44839500741275    1.77053679954743
C         7.92241456272207    2.49693462718010    1.98613547731006
C         7.76547581193444    3.01283993204888    3.22209579725465
C         2.75827989219129    6.09985540259687   -0.95183972707765
C         6.79077125051244    5.00515212367866    4.22680708924592
H         1.24211010751711    5.53763975869196    2.96215923694319
H         2.23999638011445    5.19164027632623    4.38658392449437
H         1.92719635078175    3.91370224387229    3.19246454744142
H         3.08926596699878    4.59543135000814   -3.17479267237373
H         5.60127441730638    3.51367790085399   -3.42532585573315
H         7.84636720844857    4.97866038437608   -0.96517965562638
H         7.67276868066846    3.77551888840080   -2.25509249244640
H         6.44055236338399    2.33786540237978   -0.44638199036442
H         8.20914028679581    2.41014005950879   -0.47968398138987
H         8.38409025378042    1.58568657590501    1.66807408850471
H         8.07232793310681    2.63843828564830    4.17635134234403
H         2.45388517591797    6.80059412068356   -1.73039441930938
H         2.95823775149988    6.65753409698139   -0.03968736337356
H         1.94008800066311    5.39933039893098   -0.77312753854510
H         7.58438083372752    5.73230311978314    4.40916177302543
H         6.70835887665297    4.35800223925810    5.09921508002277
H         5.84784162760287    5.53283391045271    4.09301629517410

