71
CSD_code = RIQNUC | q = 0 | S = 0 | Stoichiometry = C22H46RuSi2 | MND = 10
H         1.00044521870739   -1.14531490958149    1.97931716296870
H         1.65045273030843   -0.74941798361727    4.32869955401426
H         5.79329585382870   -1.25094733959594    3.26431117525920
H         5.14969909059940   -1.38382690321745    0.87431101904477
H         5.21897797686449   -0.57518194418689    5.51509601452729
H         3.64146141475105    1.38759252334293    0.99547755772211
H         3.45977614596932    1.72630285544106    3.55557395904763
Ru        3.50710195162940    0.73425422225845    2.38117703987751
Si        5.62577015240669    1.96953095321583    2.32009269942728
Si        1.53644578239905    2.15114770495209    2.04284237935892
C         2.05006414315313   -1.04369610823942    2.23441481075107
C         3.78928155569403   -0.87152290131534    3.96952790765150
C         2.42369556033252   -0.80555442305076    3.57136761855131
C         4.39369173813957   -1.16041666098779    1.62066102449847
C         3.02372825673602   -1.17105581559825    1.23491747145020
C         4.75668757307264   -1.10162313054471    2.97969031241540
C         0.59763548320680    1.82253797089236    0.36846201146638
H         0.29749837497465    0.77524239537875    0.30091485017175
H        -0.32546860854538    2.40195858664872    0.36713435140169
C         1.79344286591202    4.07317442323481    2.07438998715381
H         2.58666853714681    4.33279728309093    1.37539622670847
H         0.88637557580810    4.56513985724766    1.72330130458519
C         0.18226429961131    1.77322341815244    3.39422546832079
H        -0.13943893922339    0.73283133204740    3.32460427583336
H         0.62576048348350    1.89563932283071    4.38291347311420
C         2.15969058902850    4.61950670747083    3.44841022235692
H         1.35109412522112    4.45982991091648    4.15636858789127
H         2.36354733048951    5.68820566091965    3.40080274599008
H         3.04447486021950    4.11135299322625    3.82391265376834
C        -1.05869084089083    2.65472550456127    3.30468675340100
H        -0.79334531613287    3.70340450576039    3.39215136546992
H        -1.76105926942800    2.41321598714102    4.10235682922028
H        -1.56511876401103    2.51037417328073    2.35443720927366
C         1.39676882548284    2.19218023976840   -0.87379082295167
H         1.61923488344608    3.25504804187263   -0.87243895983256
H         0.84323548998475    1.95694130079817   -1.78251180738470
H         2.34290195695142    1.65541244497795   -0.89442211083984
C         6.90440941119975    1.13879405264456    1.10720610995106
H         7.87263808709411    1.62243713671842    1.23697275578979
H         7.05898033003310    0.09136773425382    1.37099761557634
C         6.60947236866800    1.93550186826455    4.00090998781005
H         6.67609915973131    0.91494167280915    4.38125956852395
H         7.63524985007375    2.25290443712755    3.81185492624028
C         6.50736043969400    1.23066251089848   -0.35986584145613
H         5.52104958833436    0.79914978324546   -0.52012405669867
H         7.22189049332193    0.70914708579680   -0.99697589918185
H         6.46423120037955    2.26927442292078   -0.67396132216651
C         6.01226355155466    2.82375754769490    5.08331036056177
H         6.02663660098865    3.86338087813120    4.77009651513517
H         6.57021367223181    2.73827153827312    6.01537490195797
H         4.97812267219279    2.54702998731663    5.27310231808803
C         5.57278051255221    3.83257972113360    1.77556913802600
H         5.08839348854313    3.90193551920606    0.80206314942897
H         4.94366991225915    4.38872345304133    2.46729044466282
C         6.93876556081045    4.50678113881987    1.70133749585139
H         7.43711037979482    4.47675542279591    2.66606868714872
H         6.83545496592099    5.55016503602868    1.40611029388348
H         7.57669658724575    4.01274331981882    0.97409539471585
C         4.18321601916036   -0.92501097910678    5.42945247564271
C         3.31450604078377   -0.04942928003911    6.33181077043063
H         3.22244896212050    0.95211092491912    5.91480713880530
H         3.76839632706138    0.02641056218529    7.31719771189847
H         2.31841750086130   -0.46998024076460    6.45416208838363
C         4.12892835653321   -2.38746863003306    5.89080709554886
H         3.11568106574155   -2.77733938168868    5.80319467938656
H         4.43713843521180   -2.46349443680805    6.93095196450227
H         4.78958676660997   -3.01001826754308    5.28938621698230
C         2.64263964276914   -1.50492475503125   -0.17943364045934
H         3.40269058120165   -1.16493844927475   -0.88104143024394
H         1.69297143058776   -1.04796206365425   -0.45013355793001
H         2.54354295147090   -2.58817146963035   -0.28563637851394

