30
CSD_code = RIQQIR | q = -1 | S = 0 | Stoichiometry = C10H12NO6W(1-) | MND = 6
W         1.16714296649000   -4.01825737604544   11.86643023766195
O         0.26150239604996   -5.95409783632288    9.57726479476710
O         1.89879232761759   -2.30042154736422   14.37996051739752
O         1.24536030880352   -6.50103076018437   13.74696389614416
O        -1.83396302923915   -3.73950025015870   12.64929371183247
O         4.71021205378754   -2.97901358542329    9.66988885741111
O         3.31781545684701   -3.92298514175706   11.10366634967598
N         1.35318063493888   -2.22481941579321   10.41956233261737
H         0.46756956449337   -1.94983106424889    9.99655694608457
H         1.72048057981462   -1.41546925223990   10.92234656013263
C         0.63917034680134   -5.20592510255012   10.36626672359448
C         1.67927589137777   -2.88530985802479   13.41408394768923
C         1.23132000704447   -5.58376103058925   13.04376432844375
C        -0.71319556463911   -3.84618917607666   12.36149368782681
C         3.58950809941579   -3.21278985554060   10.11559155374612
C         2.31758790691943   -2.59271552087852    9.37518403897503
H         1.87894298513972   -3.42862654370030    8.80714306748747
C         2.61326600830972   -1.44179313707051    8.38339247256750
C         3.42180751965575   -0.33103579083449    9.05907818351690
H         2.87178334333484    0.12237196372423    9.88425866193217
H         3.65637654571734    0.45455604675282    8.34201499362619
H         4.35057704960485   -0.74640139020977    9.44018458935644
C         1.29888402654630   -0.85613365467636    7.84035834204168
H         0.64695179061600   -1.64632910009870    7.46911308820125
H         1.51224533050749   -0.17915608780983    7.01430697313454
H         0.76250737034174   -0.28633746375883    8.59884973791576
C         3.41474137984902   -2.00735893456928    7.20814962583843
H         2.83513958553281   -2.76141696490331    6.67774657993892
H         4.32386808587783   -2.46529805776701    7.58672758966018
H         3.67784903244586   -1.21582411188103    6.50755761078292

