38
CSD_code = RIQQOX | q = -1 | S = 0 | Stoichiometry = C18H12O6PW(1-) | MND = 6
W        12.37569242774934    6.42135572552311    2.01474064452843
P        11.40875841968221    7.43175167212859    4.00081029079391
O        14.09313422811266    5.25068854535605   -0.31544778107514
O        12.60842445795386    9.26102591570072    0.70623066198228
O        12.13659137048331    3.63764443446600    3.44230987431229
O         9.84456110428799    5.80991086149176    0.30260200737046
O        14.95707150007251    7.82584665636232    5.29522009699978
O        14.16230406973107    6.92677968921121    3.42947711732411
C        13.47114029347089    5.67946488067076    0.55425584414686
C        12.53622352702303    8.22208850032799    1.19709455842269
C        12.24973800549427    4.64804514856850    2.90889381104498
C        10.78932360431027    6.03153010856450    0.93963777539934
C        12.75484749378619    8.48647326891715    4.61836682021091
H        12.81309944588555    9.35780494929790    3.95371227024531
H        12.61971406750889    8.82955377329576    5.64977046804502
C        14.09988794038984    7.66035909402471    4.43633830897562
C        11.02011126147180    6.36484861722797    5.42130300360903
C        11.99262127488681    5.98219369204502    6.33978473103985
H        12.99203304541670    6.38828043259180    6.27473965384248
C        11.68330439964918    5.06963088258169    7.33327084996872
H        12.44240697689740    4.77596392407513    8.04488343167408
C        10.41200115846838    4.52698539051271    7.41410773862804
H        10.17603119588151    3.81250350223343    8.19092303259905
C         9.44542016810741    4.88937591201060    6.48883571723248
H         8.45604632190081    4.45543973200504    6.54124359510845
C         9.74988664520898    5.79610010456839    5.49268887314921
H         9.00738664174068    6.07290884471904    4.75435146560828
C         9.98339963400193    8.57095252607201    4.02300605483156
C         9.49313686614865    9.11292044885938    5.20695988301330
H         9.93609682874829    8.82241332106213    6.15077828245984
C         8.44267571367981   10.01033980546935    5.17494519385847
H         8.06289940943598   10.43080757508223    6.09637135838661
C         7.87502172787746   10.37338605701262    3.96311436831283
H         7.05319193876684   11.07592855151990    3.94207549587346
C         8.35831725204807    9.83472312096617    2.78216199634903
H         7.91277616761099   10.11421753735077    1.83785279358366
C         9.40956381806105    8.93536161705753    2.81154942966090
H         9.79525959804839    8.49599518107265    1.89924028248546

