45
CSD_code = RIQSAM | q = 1 | S = 0 | Stoichiometry = C11H27ClN5Ni(1+) | MND = 6
Ni        0.31295026275760    3.12837507792213    8.45441900721530
Cl       -0.11751840795603    4.93894220831054    7.46101324659937
N        -1.58501133343076    1.82131192909671    7.92028574199630
N        -0.97321397665453    3.71642347776112    9.92620057125992
N         1.82904182655974    3.79202992749380   10.13696663236725
N         0.88766107967910    1.21588085730215    9.28097130180573
N         1.46956355562012    2.67200108490140    6.94764058019053
C        -0.28217655075670    0.33556151231055    9.44193733940193
C        -1.32783326283275    0.43612556388033    8.31726331633115
C        -2.67737701296225    2.49027630538147    8.63392259601032
C        -2.23146306554959    2.97033105606407   10.01801789515657
C        -0.38214663159790    3.98124370276068   11.24016119835899
C         1.02532039581687    4.56688102546380   11.08645866816504
C         2.47026307867672    2.59368641202393   10.67711103258330
C         1.56079312888040    1.35598573165486   10.58534738493002
C         1.84214206045741    0.66513931040149    8.29510685351730
C         1.58714225903833    1.20888616705896    6.89082978376693
C         2.76982078823303    3.34596428860929    6.89294403869947
H        -1.82263183267705    1.83774249737705    6.93247934292462
H        -1.18550293675949    4.62384183558906    9.49651713849590
H         2.55080516333950    4.41068709669653    9.77908949937541
H         0.95067073504643    2.99230139002224    6.12595059445040
H         0.03877149129146   -0.71227333889972    9.52130868757735
H        -0.76956511803960    0.59407993981664   10.38116880816464
H        -0.97893875544402   -0.12233364829032    7.44688591444387
H        -2.24350518694329   -0.05640751538231    8.67247012766626
H        -3.55313545252492    1.83689898076250    8.74933347287205
H        -2.96738947540390    3.35958422355198    8.03920867078065
H        -2.08959031873587    2.11586983881603   10.68277083894318
H        -3.02368967654995    3.59502131305344   10.44925695570389
H        -0.34285018140780    3.04794019992397   11.80535842525644
H        -1.00054770660215    4.68562813985192   11.81071629963035
H         0.93731207494858    5.57965624214768   10.68679218522417
H         1.49937275490185    4.62197174634693   12.07591096959512
H         2.75234120003811    2.72278798729924   11.73125513748679
H         3.38969015681799    2.41566716875755   10.11471946782621
H         2.15822020451382    0.46148538672147   10.80558950103376
H         0.80015650746554    1.43284676797878   11.36037508919249
H         2.85034879645764    0.95297080534331    8.59434819485026
H         1.79948949876034   -0.43110413383137    8.28438936624528
H         0.66270006159055    0.79870069155355    6.48461605113751
H         2.41049955048973    0.91005369160950    6.22928052850425
H         3.30082925312240    3.08730835524899    5.97118361520865
H         3.38709532874382    3.05536924314323    7.73996817394635
H         2.62018566958158    4.42405945639466    6.91665975510883

