42
CSD_code = RIQTER | q = 1 | S = 0 | Stoichiometry = C16H22Br2NTi(1+) | MND = 12
Br        7.22107894710053    2.63249825449304   14.41048609456015
Br        4.05767496021757    3.03659279683733   13.03955914005926
Ti        5.91434437096556    4.55715269925482   13.59459043235731
C         4.67913488666545    6.29297491385743   14.58085451363201
H         4.07246230463487    7.00581272819299   14.03674772489517
C         6.03863271663478    6.45347061382063   14.94254825928549
H         6.65300503905120    7.31830950887667   14.73529448722312
C         7.54900820119505    5.84858941231692   12.47537118042392
H         8.31785227489299    6.46700394740487   12.92008696560203
C         6.27603001308775    6.28504993464075   12.03651704364629
H         5.90200241570029    7.29825149078938   12.08833075856112
C         6.38790087544335    5.38483319257719   15.78676967128889
H         7.33802358631700    5.25552569464982   16.29142132932077
C         6.54749814298252    4.11485106857180   11.38160307970401
H         6.39756403010229    3.16695023011235   10.87558864526948
C         4.18002164091270    5.16507746134463   15.26473354117941
H         3.14619363357345    4.84820319785042   15.25929482039488
C         7.72688375511075    4.52187203860602   12.03896656674728
H         8.63918346109489    3.94377914630189   12.11828799117750
C         5.65225867504345    5.21423916958156   11.37282644899707
H         4.70483925171975    5.25172142725279   10.84807293987993
C         5.23341095032651    4.58397979900176   15.99713225499320
C         5.15254209759234    3.43385283564393   16.96639066469222
H         6.17372107201824    3.08780124766683   17.16304566041140
N         3.67934178399125    1.62469034224286   18.74028984801595
H         2.75317634075616    1.99389673166536   18.49478207734914
C         4.33248286024273    2.24908777453584   16.44280533429210
H         3.32040125648143    2.56732156365702   16.18594354060444
H         4.78981910898245    1.84793222669730   15.53828848624545
C         4.52809643651771    3.90399399739685   18.29064958961104
H         5.12286999022494    4.71104093298018   18.71806319782738
H         3.52648911954808    4.29818097528455   18.10422633419585
C         4.29219745299376    1.13656194107731   17.47612165325747
H         3.70812623234586    0.29458601116386   17.10235286101683
H         5.30359227622760    0.79056790725926   17.69680100572691
C         4.46849695880442    2.75566707100634   19.28950740674529
H         4.01010731018254    3.08481220935934   20.22435301299630
H         5.47456133649086    2.38903033378118   19.50355255354970
C         3.51154922761119    0.54298013286314   19.72247634859823
H         3.03411577878313    0.91855126778979   20.62578889618166
H         4.48551221167746    0.13266526595835   19.98376697776298
H         2.89779701576551   -0.25315949436068   19.30531066173136

