66
CSD_code = RIQTOB | q = 1 | S = 0 | Stoichiometry = C22H38Cl2NSi2Ti(1+) | MND = 12
Ti        4.75790440178971    0.59415695982046    3.44694376721798
Cl        3.31547865486024    1.25672605814027    5.05584874089061
C         5.52699679796400   -0.66978079732560    5.35379150200395
H         5.44495323104688   -0.33768876851452    6.37940303540764
Cl        2.94965020700355   -0.18309749998844    2.35262661628602
C         6.62453166161060   -0.41665579447697    4.51099152850861
H         7.54252561207503    0.07140249221504    4.80807496857758
C         6.40574639453601   -1.09811772021831    3.29092056636055
H         7.12807492460525   -1.23169281239258    2.49845914276696
C         5.17476140330650   -1.76925727850722    3.38766961207278
H         4.76667676483251   -2.43652965746590    2.64131761545437
Si        4.69829443829821    4.27899749346148    4.66804100258909
C         4.62182017468182   -1.50909659997484    4.66323884114393
Si        4.81029947189300    1.05826093459169   -0.28701995180369
C         3.29052063512227   -2.03496196033119    5.13891151904319
H         2.51403577404132   -1.58388810893300    4.50289519289719
C         2.99228347301615   -1.66986788086168    6.59475804330338
H         3.76027734295158   -2.08360188564395    7.25292226976686
H         2.99416333102988   -0.58336382613469    6.69623088023281
C         1.61951994335716   -2.18756827561221    6.99113865673780
H         1.39689361253016   -1.93828089984487    8.03015910356431
H         0.85449899118035   -1.74283332063668    6.35210560530312
N         1.55518624773797   -3.66576089194619    6.83258995894333
H         2.31736325585918   -4.05653098254908    7.39886968624186
C         0.27815380888561   -4.21428982035159    7.31258857562993
H         0.12257697595377   -3.95348242763203    8.35784019327851
H         0.26916793122113   -5.29854572844874    7.21560122248623
H        -0.53961380301782   -3.80234300794436    6.72356440007362
C         1.82660283055988   -4.04840941576758    5.42305986294291
H         1.05657967852763   -3.59351591581145    4.79649791113618
H         1.75503908971084   -5.13452327423004    5.33531361350477
C         3.20250615607494   -3.56020909412462    4.99192618800941
H         3.35863881068911   -3.84630550215378    3.95313268975157
H         3.98418827054552   -4.03741520742756    5.58834443732333
C         6.39522992284598    2.28604084893004    3.32400622399653
H         7.23263684095501    2.47769778088233    3.98244019566460
C         6.44005296678381    1.55124854969735    2.12113473236694
H         7.32185911989671    1.08849481936745    1.69892922733069
C         5.18997248382153    1.66328112593101    1.46895360825066
C         4.38230592675397    2.49621217305168    2.29654353340323
H         3.39352257160618    2.85996833807048    2.03820710819945
C         5.12729039263338    2.90334332169000    3.43511925371926
C         5.28176856026543    3.74681720467982    6.40877939645863
H         5.10582650185831    4.54172336461370    7.12608618022188
H         6.34715736935562    3.53103902575433    6.42094031262785
H         4.75665223975595    2.86319246332252    6.75984363251175
C         5.72026938731541    5.78231427270822    4.08802544536868
H         5.46166881676170    6.07734495088132    3.07594329474412
H         6.78649906370691    5.58002221844597    4.10809605770846
H         5.53621814687406    6.63324304673316    4.73453697354564
C         2.83888264954435    4.68420726215694    4.58155778017206
H         2.57178864144212    5.09162033233909    3.61048813986335
H         2.57964000915874    5.42892197597916    5.32703148053712
H         2.21912585942374    3.81095057301457    4.75980112786800
C         6.08558012683152    1.91666656182723   -1.41569905519567
H         6.02289158952950    2.99761758123279   -1.34119193143799
H         5.90945397626768    1.64916539250199   -2.45169242650048
H         7.10389105923621    1.62978354622464   -1.17308448113828
C         3.03772232321703    1.56057550221406   -0.76767700296682
H         2.30039816922528    1.14454193196106   -0.08771262739494
H         2.80077205542782    1.20588815464703   -1.76550970023895
H         2.91973242103618    2.64044880517582   -0.77067264317263
C         5.06762825863709   -0.83630432505379   -0.35606698122929
H         6.05574312954514   -1.12233496841099   -0.00292146868936
H         4.97320128481273   -1.19551391108479   -1.37588262830938
H         4.32882164102816   -1.35894750244104    0.24569024404467

