45
CSD_code = RIQZOI | q = -1 | S = 0 | Stoichiometry = C24H14AuO6(1-) | MND = 2
Au        4.19251736208466    1.60779695813666   10.38798048444096
O         2.85566415329272    6.88152365048313   13.30485083483326
O         2.39877155459457    8.79442771078919   12.29073539007481
O         4.06533448682594    2.87275578809291   15.57201741628790
O         1.73189414295498   -0.02248958460756    6.02220621451937
O         1.89546580278732   -0.99482412014893    1.36396521399129
O         2.03680599026153   -1.43469752698056   -0.80033302218237
C         2.05459910663604    7.97208503574759   13.10917327085479
C         0.85487542022525    8.06077192129679   13.91790005739816
H         0.22571067394550    8.91672432486602   13.73421731666335
C         0.56268419096075    7.12506684616849   14.84612075516169
H        -0.33009186030661    7.19725314391399   15.45307873085248
C         1.22016084048373    5.01023367946742   15.99714619611696
H         0.34084923576279    5.06503389293045   16.62281825081386
C         2.10717513841838    3.98062048231101   16.13674818856025
H         1.95497012513812    3.20363940640667   16.86966332880721
C         3.25311198648720    3.89763386816814   15.31697989834384
C         3.47275077730307    4.87721004652820   14.35258964698702
H         4.30762522818120    4.82900894210013   13.67363095976549
C         2.57727197889750    5.93105655934995   14.22792986653937
C         1.43456354080111    6.01755077157084   15.04422062264084
C         5.23733818751704    2.67619684438555   14.75351508490526
H         5.74909632909772    1.83740518430228   15.24259721025570
H         5.87749248714629    3.57070017201430   14.82802167676032
C         4.93010339696490    2.35848233081730   13.36593980532776
C         4.63859987419265    2.09560918703415   12.22327335804735
C         3.73306722793590    1.09767324789891    8.55967666896028
C         3.44697865115198    0.78070369609511    7.42969802293092
C         3.10757260690406    0.39645954862298    6.06700515171858
H         3.24439864717822    1.24680147542571    5.37881529533737
H         3.74599291855557   -0.43698078479180    5.73006879731781
C         1.33369128079048   -1.42081340176176    0.18664154438946
C        -0.81302650844985   -1.25292267431341    3.82071377891224
H        -1.85131755218268   -1.54656933806253    3.87537854465969
C        -0.15738090858109   -0.81580828555395    4.93669994101818
H        -0.65115470476735   -0.75194124136630    5.89336439188112
C         1.19925725378519   -0.42865698150168    4.87584716392826
C         1.86708709045473   -0.49853057938545    3.65405428407743
H         2.90150940426293   -0.21511767706659    3.54972309214015
C         1.19601586937026   -0.94502923017946    2.52355949604329
C        -0.15508736711244   -1.33027557609225    2.58222183807898
C        -0.76755210553675   -1.77404620698314    1.37779022460469
H        -1.80665540550625   -2.07308101412646    1.40279128498228
C        -0.05417114915301   -1.81746622925397    0.22799011151938
H        -0.47866539975657   -2.14697426274106   -0.70652638927598

