105
CSD_code = RIRBAW | q = 0 | S = 0 | Stoichiometry = C52H44FeN4O2S2 | MND = 6
Fe        5.62901309439955   -0.00006551684049    0.00000952624629
N         6.46782808050256    0.65657916005284    1.68568457598530
N         6.43482528555407    1.53592141886211   -0.99772808955087
C         6.30135971352845    0.14177286457619    2.93236698082106
C         7.18119170568716    1.80158209134685    1.85019827522471
C         7.16981381334951    2.55602861040646   -0.47838174757050
C         6.37063002714571    1.76547429498126   -2.33654760794148
C         6.94800842390627    0.97075072758062    3.91069118236815
H         6.95108574827405    0.78873821713563    4.96744119798124
C         7.49615613282770    2.00447440443801    3.23674722369472
H         8.03945437289882    2.84147453044604    3.62940148202015
C         7.58076202668356    3.45593732091603   -1.51682712364678
H         8.17847843507537    4.33434171902464   -1.37137705642301
C         7.07898530363475    2.96590271805745   -2.67340423225313
H         7.16868582098285    3.37284235234986   -3.66144108460423
C         7.53302464951396    2.70476689004539    0.85568208477515
C         5.57398141080361   -0.99297089528231    3.26636452542051
C         8.34093830445805    3.88446484781285    1.23182956174852
C         7.80973932791817    5.16619843990443    1.13188018569255
H         6.79345060145710    5.28901808826189    0.78735071696564
C         8.56804847347297    6.26816976169644    1.48294595348900
H         8.14390038135111    7.25875168092307    1.40600672488718
C         9.86760902669896    6.10464900497503    1.93294655661211
H        10.45966468204566    6.96593456653436    2.20509615246569
C        10.40461949434370    4.83228373491604    2.03394879024366
H        11.41824665917353    4.69956290474999    2.38349967230826
C         9.64624697198791    3.72856882005239    1.68796107171225
H        10.06557165879949    2.73515794481191    1.76281936901125
C         5.52080931493155   -1.40130064937386    4.68655176807547
C         6.66551688743842   -1.84881224843866    5.33839193039194
H         7.59972503275762   -1.89735932978264    4.79662854395486
C         6.61067955527678   -2.23630492781229    6.66512026843603
H         7.50507585888079   -2.58590950058279    7.16034774932692
C         5.41320736942959   -2.17680881285599    7.35787962920332
H         5.37142375684503   -2.47782261659619    8.39428441624390
C         4.26999616351187   -1.72839334862132    6.71717555714356
H         3.33470688339267   -1.67649930758655    7.25541316807655
C         4.32156074021701   -1.34548651376752    5.38930029133684
H         3.43526578393053   -0.98744223041056    4.88671834824571
S         3.84966876637939    1.17870802502250    0.41559668604131
O         3.82239989376899    1.85759812086918    1.70461994494887
C         2.20975938074669    0.33139442777389    0.27482123989957
H         2.36987835841466   -0.74129230079290    0.26876905695462
H         1.66354494845746    0.62446932843860    1.16903218151169
C         1.56161023192359    0.85366366312675   -0.98991628493750
H         0.48526523303590    0.67330678725309   -0.99159199932511
H         1.99723578570749    0.35920229327157   -1.86069722300794
C         1.88248499877539    2.34440328374428   -1.02974673990338
H         1.55628254128946    2.80475464844303   -1.96364767001037
H         1.38032407861773    2.84779634640628   -0.20153340347995
C         3.38445858005668    2.43985346301099   -0.85513521243613
H         3.73008554486988    3.40520863370515   -0.49814674336236
H         3.91164263081710    2.16496572585076   -1.76412171538462
N         4.79015111099354   -0.65662928038510   -1.68566078805160
N         4.82315318856978   -1.53594426501581    0.99773849808062
C         4.95641163037762   -0.14166582878318   -2.93230360527851
C         4.07702235738107   -1.80176581559732   -1.85023147291318
C         4.08837371327638   -2.55617603767655    0.47835403538478
C         4.88711387762930   -1.76534059006792    2.33659211373427
C         4.30983261795648   -0.97066800747867   -3.91065572123273
H         4.30660217538519   -0.78853103043963   -4.96738415464205
C         3.76200019667608   -2.00459627288195   -3.23677468763985
H         3.21885647482654   -2.84167186711690   -3.62947778825918
C         3.67731993665046   -3.45601834516730    1.51681123199779
H         3.07972395545998   -4.33450241893727    1.37133234227717
C         4.17877743394880   -2.96578267865512    2.67344061724214
H         4.08888893323553   -3.37260504722274    3.66150988009071
C         3.72535507736279   -2.70503718445093   -0.85574366682539
C         5.68362192310863    0.99319525958002   -3.26628733714057
C         2.91770682970267   -3.88489351961677   -1.23193115283728
C         3.44917849053305   -5.16650821377951   -1.13191471360311
H         4.46546665267912   -5.28909093484883   -0.78731710170179
C         2.69114654114753   -6.26864842120604   -1.48304238461446
H         3.11551405698671   -7.25913184191778   -1.40610166106020
C         1.39159537885487   -6.10541440719009   -1.93317688506586
H         0.79976033493494   -6.96683087167871   -2.20538881780153
C         0.85431032241223   -4.83316530593691   -2.03423728951815
H        -0.15931986421646   -4.70067227477034   -2.38385133306024
C         1.61240469761053   -3.72928310936739   -1.68817661580405
H         1.19285884744352   -2.73596851766804   -1.76304575354188
C         5.73652841207268    1.40169684882885   -4.68643806154598
C         4.59166921731792    1.84920905905578   -5.33800948454412
H         3.65756282535233    1.89763351524127   -4.79605854104557
C         4.64622921326180    2.23686684303055   -6.66470085768546
H         3.75171778975977    2.58647653156916   -7.15971408979325
C         5.84357522444625    2.17754531843514   -7.35769291661683
H         5.88513990076849    2.47867414897005   -8.39407326762305
C         6.98693520276489    1.72912294507301   -6.71726265429173
H         7.92212492841792    1.67734300091043   -7.25568912213009
C         6.93564651712844    1.34604977297836   -5.38942395367000
H         7.82206584969279    0.98799919333581   -4.88706518421761
S         7.40824942326752   -1.17902208386109   -0.41550514304027
O         7.43519251735732   -1.85857481698532   -1.70418875953472
C         9.04823672123037   -0.33173597844999   -0.27541971954014
H         8.88816662216718    0.74095845493133   -0.26985298616877
H         9.59428380728241   -0.62525915237620   -1.16958022273850
C         9.69658453273101   -0.85338825207478    0.98946328387626
H        10.77293822902915   -0.67306887313986    0.99088024960890
H         9.26109471038453   -0.35848194370799    1.86006064049787
C         9.37562638953117   -2.34409298288925    1.03004853129244
H         9.70196561824189   -2.80399150849588    1.96412434928129
H         9.87761548502854   -2.84793216556118    0.20199568267578
C         7.87361420641612   -2.43956905460517    0.85576436650622
H         7.52787516369451   -3.40506166745516    0.49925762593592
H         7.34660665576643   -2.16425398749610    1.76472579066482

