53
CSD_code = RIRBUR | q = 0 | S = 0 | Stoichiometry = C22H22FeN6S2 | MND = 6
C        -4.54250584991829   11.17695352720060   14.96441339305938
C        -3.70312100631592   11.58169578752568   13.94735724444655
H        -4.02313023443267   11.50781925434891   12.92015869237197
C        -2.45152337603333   12.08589738239545   14.27328703774410
H        -1.78189000870031   12.44215224703408   13.50726371123926
C        -2.06019354961361   12.08359170670182   15.60408900908831
H        -1.07053022170503   12.41980773516624   15.85920745619519
C        -2.94937982863601   11.65398867934826   16.57600975168996
C        -2.58657934424387   11.49491712870970   18.04791176880129
C        -1.12940555635219   11.88244338721721   18.30033850470702
H        -0.46274818682061   11.24975323971064   17.71919649250197
H        -0.88414749002994   11.77682800322973   19.35401242636040
H        -0.96154294678721   12.91618391374396   18.00971987775323
C        -5.71968309642202   12.66982741250735   19.55492125309371
H        -6.74066256278451   12.33481383915340   19.47553986247300
C        -5.36898771819564   13.71303437417557   20.38706738541997
H        -6.12433190180599   14.21748958715311   20.96652967985079
C        -4.03846838953221   14.09227439627433   20.44505484139939
H        -3.71819298125863   14.91428483890953   21.06617167934554
C        -3.11489899698265   13.38571634601555   19.69121953940268
H        -2.07660430407554   13.66484454867703   19.74073113447136
C        -3.54314457360437   12.34150020281723   18.88359731112197
C        -4.38679575527625    8.31393825380914   18.57520936965919
H        -5.41306100575177    8.01657017846347   18.43389132514135
C        -3.46872126455443    7.45814707488135   19.14180863674127
H        -3.76134007908386    6.46163208705904   19.42950020544703
C        -2.17393007436359    7.91609919187447   19.33258928755092
H        -1.41440816873012    7.28480587432763   19.76579870884204
C        -1.87737729929413    9.22007909248999   18.96744167994163
H        -0.87913423535142    9.58757467569575   19.12940793853136
C        -2.85821237784580   10.03175789783160   18.41632924027940
C        -5.88727794468438   10.55770224636800   14.73365622258301
H        -6.64514847187478   11.33988384077427   14.81506213503730
H        -5.94799245590945   10.10485227797847   13.73377231756222
C        -7.57027553229255    9.28875095564888   15.89493977131804
H        -7.97202668884897    8.89542575301156   14.95346595713330
H        -8.08805041509230   10.20478645286253   16.16647372885963
H        -7.73693880271110    8.56633677479711   16.68987567997798
C        -5.41993851159041    8.34348362733208   15.48091695481983
H        -5.60369713396090    7.59900230197069   16.25096108741192
H        -4.34913701325651    8.54046927306821   15.43470070538824
H        -5.74250702952965    7.92930268051744   14.51578964820930
C        -7.27841491366119    9.61718037318666   19.66642474824810
C        -6.98511483947057   13.21198992023963   16.86319163343369
Fe       -5.43157090775827   10.73454096036797   17.52447945040525
N        -4.19455405541740   11.27331482372347   16.26122614816065
N        -4.83583911582888   12.00991058121111   18.80347045425101
N        -4.10450557504708    9.56714103815479   18.20356220688481
N        -6.14261006299731    9.57035382850757   15.79264171471056
N        -6.71089193960976   10.01581018016401   18.71768609283651
N        -6.68415639859637   12.07684911388739   16.93821799104807
S        -8.05721505932384    9.01168015323286   20.90479109464925
S        -7.43268474803261   14.71981097854656   16.69231981240134

