67
CSD_code = RIRCOL | q = 0 | S = 0 | Stoichiometry = C26H33N5O2Ru | MND = 9
Ru        2.19023395967479    2.27835457729069   10.99638284496288
N         0.48504976773133    2.93436526215784   11.85091920153552
N        -0.13232370618953    3.89159554070714   11.57793462814799
N        -0.82071767959623    4.78461333254115   11.42989883711147
N         0.64675755621545    4.63178658697905    7.77224406959580
C        -0.07119948136607    3.91700165888613    6.80837724317778
C        -0.05916671711265    2.52699403467161    6.76154585883807
H         0.51249182677632    1.96961354337821    7.48391832578080
C        -0.78908180646702    1.86830063268445    5.78880800632017
H        -0.77935998760144    0.78825951205678    5.75966574737646
C        -1.52470428343679    2.57849408871077    4.85600872201480
H        -2.09187806379105    2.05648145262495    4.09974892195283
C        -1.52834783458815    3.96348196739125    4.89947363614109
H        -2.09929019470641    4.52544202682687    4.17515436983233
C        -0.80824309805908    4.63400286359670    5.86792500598130
H        -0.80096889085249    5.71038436861797    5.91826475865360
N         0.75074280242425    5.98220086569611    7.65805058914989
C         1.43464432907620    6.42914060150226    8.66865716137126
C         1.69533581828303    7.89106170015436    8.74309462952817
H         2.75969826502480    8.10527413575672    8.65157876734674
H         1.32442110328553    8.30498528481621    9.67670083097758
H         1.17455690868517    8.36398406358795    7.91455539210776
C         1.82831021175095    5.35068452374660    9.53585286674306
C         2.62255753044507    5.28487301691597   10.69867393810718
O         2.90114693350265    4.20832001583536   11.28925217652734
C         3.25692745872663    6.51334557454213   11.31285757042942
H         3.22654246555786    7.34798955128178   10.62105858676341
H         4.30095086710611    6.26256200720510   11.51908927969229
C         2.60253509560045    6.93491444202911   12.65340224039437
C         2.68498725744402    5.80461552918240   13.67951321245513
H         2.27147725840470    6.13577172059372   14.62950137874517
H         3.71889863151277    5.50535033345374   13.84040919598573
H         2.12253108433270    4.93274967804505   13.35108737978648
C         1.14177460979517    7.33230383130496   12.44331965079193
H         0.57016122867722    6.53250177324451   11.97825101675136
H         1.06831777189344    8.21912310027303   11.81803698653025
H         0.67960278035782    7.56165172009513   13.40080713830023
C         3.38140132087089    8.14548616466638   13.18046374937328
H         2.93998370171329    8.49692740119197   14.10993110105071
H         3.35907905064313    8.96309620963259   12.46297061808354
H         4.42053837308027    7.88630662487050   13.37297966466659
C         1.27571308648791    4.18626932520273    8.89841116427239
O         1.32138668184270    2.95789596682945    9.20998671381285
C         2.18497580914072    0.08831782993779   10.38677538674419
C         1.27082798578803   -0.66358753966028    9.44784058219269
H         1.58288998276817   -0.44054144767501    8.42084670783732
C         1.41312143937587   -2.17189973792391    9.67647911940597
H         2.44382434503728   -2.48874292202297    9.52804587426344
H         0.78095755409506   -2.71461727412287    8.97814657057105
H         1.11412766426865   -2.43628393014277   10.68839024245479
C        -0.18244858278525   -0.21244464394273    9.61374976912883
H        -0.60498464677205   -0.58371754938131   10.54389429675772
H        -0.78787633703895   -0.58592067464878    8.79151703997833
H        -0.23646112619686    0.87636580327390    9.62226927086276
C         1.91980446753893    0.15994905307012   11.76522734037101
H         1.05281765926955   -0.34197284226416   12.17779543399691
C         2.80188727708784    0.84344961465987   12.64478305090051
H         2.60058568577161    0.84495441345330   13.71036451621671
C         3.96318367536102    1.46385095634447   12.14841285504562
C         4.92231949506837    2.17212814749011   13.05819719823357
H         4.53710036706567    2.21268681939913   14.07418659676742
H         5.08063042161556    3.19197280839998   12.70837750862302
H         5.88576286995828    1.66092942668181   13.06361554300078
C         4.26697805575741    1.33999644213835   10.76073867091612
H         5.20433581343619    1.73574486532399   10.38585993112694
C         3.38967712647873    0.67900392488040    9.90114488733465
H         3.64678900474781    0.56482184596371    8.85307843009615

