52
CSD_code = RIRDOM | q = 0 | S = 0 | Stoichiometry = C21H21ClF3N3O2Ru | MND = 9
Ru        1.31002830087494    1.86284457161388   10.47307196174773
Cl        2.31497182461861    0.11957212988629    9.27676839550222
N         3.88743421827995    2.44536567054952   11.58662115734143
C         3.41628577352440    1.47452226187471   12.41545927733101
N         2.19630696859633    1.00643752811290   12.07618312748803
C         1.67554053670106    0.00670508801612   12.78745332564525
H         0.72145925511988   -0.37536842993350   12.44739645220941
C         2.31314988074870   -0.53539694741727   13.88257096085680
H         1.85350750125699   -1.34374797464627   14.42640214950157
C         3.55563992351996   -0.02799647333622   14.25882892650128
H         4.07665050686579   -0.43381518146183   15.11124210703734
C         4.12167097884192    0.98631205610801   13.51974759276900
H         5.08788589202029    1.40999320033713   13.74129932616524
N         3.14771248428978    2.71576979967674   10.46009550244180
C         3.85341336288392    3.50998691894904    9.69000855865406
C         3.37908081786398    3.92951818248911    8.35128256865877
H         2.89130534112945    4.90210615811920    8.40200264423827
H         2.68436163327018    3.18417569322870    7.96467029999154
H         4.23198818268498    4.03133302377427    7.68550193263000
C         5.08963188435367    3.83439767419530   10.30879941113754
C         6.06901475809173    4.69283344271121    9.73963351780383
O         5.98420847636056    5.28245999957147    8.67807115125161
C         7.35697399665840    4.89177216128056   10.58776677895494
F         8.01913612378238    3.74914622370052   10.80858805556675
F         7.09874128108320    5.45762366065529   11.77733935755602
F         8.21379550653680    5.71054330842146    9.96209957341332
C        -0.77502346450199    0.75708600826694    7.91908039529702
H        -0.89249561636792    1.32953035966858    7.00199005387738
H        -1.64848806867125    0.12628622716584    8.06926416827552
H         0.09692805497417    0.10662442121749    7.80546648827018
C         5.13967854804216    3.13100183957039   11.56261260583033
O         5.93872883010415    3.05282484303827   12.46668197527720
C        -0.17311437823813    3.39856726523030   11.34426128747815
C        -0.07727981294404    4.34608624794563   12.51711543056726
H        -0.46708419426763    3.83128290552402   13.40341548555868
C        -0.93478869803217    5.59128892983573   12.27278181977560
H        -1.96060785099503    5.31135776086134   12.04205023400117
H        -0.54257965204523    6.18053698533657   11.44789435941335
H        -0.94003975036354    6.21516593639295   13.16264766811618
C         1.37915783188984    4.72916974438366   12.79298063518674
H         1.82219308613157    5.23207041032372   11.93638715059715
H         1.96881272048367    3.84098554670555   13.01851092469461
H         1.43474597491961    5.39934616244650   13.64691603361358
C        -0.68526632031024    2.08710855735445   11.50192885768005
H        -1.02228508485098    1.77295058568314   12.48625223805085
C        -0.88434429806435    1.22819728363470   10.40118140905727
H        -1.36987039498879    0.26864047315880   10.54100090294158
C        -0.55221387190789    1.65541142896066    9.09223489903430
C        -0.01021271182787    2.94807583735253    8.92550042494588
H         0.17639433041399    3.32319107499671    7.92573473197337
C         0.19982311161786    3.79211366061147   10.04011767658802
H         0.56063626984388    4.80030575785754    9.87028803150336

