70
CSD_code = RIRFIJ | q = -1 | S = 0 | Stoichiometry = C29H35FeN2Se3(1-) | MND = 4
Se        2.86570567910168    1.94808451228887   18.78033493076578
Se        3.34104942494546    3.93785577166043   15.83432829664491
Se        0.26210309852801    5.26339854298826   17.29307752761522
Fe        1.71187004050139    3.52047930529998   17.44545654429173
N         0.08928803502081    0.98929023478461   14.61652681154996
N        -0.48277849099780    1.46275195465337   16.66051309642254
C         0.65651010626634    2.22007221407809   16.41613967527013
C         0.98362221997690    1.88486961335071   15.12217906374106
H         1.81242588116526    2.22459082093971   14.54162416056466
C        -0.79551784881039    0.74184445780203   15.57537919754992
H        -1.62634141752140    0.07502145448997   15.49640680536096
C         0.16744757749475    0.42812019460996   13.27462598720576
C         1.46269026428862   -0.38488322506725   13.17881522249548
H         2.32188035442434    0.24669784917997   13.38545085224034
H         1.56931892923601   -0.80525999787179   12.18182557831675
H         1.45547978542016   -1.19646800881681   13.90389225346093
C         0.18394751869547    1.57942625756692   12.26435872785315
H        -0.71536329862407    2.18240600992432   12.36544519692847
H         0.22818312716513    1.18587440106031   11.25163884178948
H         1.04242923706755    2.22731541709036   12.42001085025625
C        -1.03663792644657   -0.47488186787729   13.00272412322881
H        -1.05286693813653   -1.32171215871740   13.68582659009278
H        -0.97497535309075   -0.86012026525934   11.98771837909044
H        -1.96631975472835    0.08193022793993   13.10093581127014
C        -1.17459009046619    1.25702372617780   17.93101039358348
C        -2.68178555661160    1.10451028972866   17.68668820801524
H        -3.03668988205688    1.90207788041853   17.03587490102962
H        -3.20652533052482    1.17781909138526   18.63617359818770
H        -2.93079376755224    0.14276696330901   17.24264586022351
C        -0.95444048834480    2.44117150708529   18.85864060963041
H         0.11146534821804    2.66342067415433   18.93311651830529
H        -1.32564715995545    2.21049250988185   19.85436275811330
H        -1.46906063589796    3.32333420796750   18.48631555588839
C        -0.58675609538978   -0.00865397910937   18.56664173301931
H        -0.71106776491051   -0.86722673605781   17.90808842401940
H        -1.07692190644453   -0.21964454739461   19.51381307493575
H         0.47771181508615    0.13780732606754   18.74735663800541
C         2.61159417042590    3.67828756466985   19.56951607247348
C         3.34271386002494    4.77256353767508   19.08407683231358
H         4.15363251325288    4.61478343120332   18.38125420356644
C         3.08745533629935    6.04369871737054   19.57494285577417
H         3.63878115673838    6.88345596757495   19.17474717506039
C         2.13895915047616    6.23794164582575   20.56236204842063
H         1.93343488707068    7.23305711721742   20.93157963196158
C         1.46278011474137    5.14620050747745   21.09214927476288
H         0.74077610156507    5.29084083539996   21.88581043413730
C         1.69203289110628    3.87674933638991   20.60789870619446
H         1.17724041705332    3.02281267879493   21.03022537792741
C         2.73023892360490    4.56217415428052   14.13215637443462
C         1.81620988142678    5.60442504713496   14.02147740510452
H         1.45411370072589    6.09061634034020   14.91687649786385
C         1.36249133493562    6.00864011442964   12.78105124073317
H         0.64055923867059    6.81191292308337   12.71292828968327
C         1.82410689522603    5.39226280674047   11.62881927767357
H         1.46454285218232    5.70836245681498   10.65820300256838
C         2.75547153654288    4.37053222290186   11.72883193868207
H         3.12834494899417    3.88879515999714   10.83289313606285
C         3.20592027864928    3.95807137986965   12.96804478948761
H         3.93230225269521    3.16030937730941   13.05527957579240
C        -1.31095858754960    4.86767881272771   16.28036439508232
C        -2.56745992600231    5.10652962445747   16.83574824190462
H        -2.62876882529205    5.56347328167996   17.81471510779375
C        -3.71514082514556    4.75815436877494   16.15179936536011
H        -4.68418532560566    4.93892842484911   16.59988086719372
C        -3.63093629646959    4.17322665664400   14.89817519963326
H        -4.52981081418574    3.89193487057183   14.36512735512665
C        -2.38412623218336    3.96243744146933   14.32952417075330
H        -2.31506520444719    3.52843976510217   13.33925103301622
C        -1.23265685497620    4.30827747052540   15.00728324137895
H        -0.26184228661706    4.14702333091307   14.56194408509084

