105
CSD_code = RIRFEF | q = 0 | S = 0 | Stoichiometry = C39H59FeN3SeSi2 | MND = 3
Se        6.38986526383217    4.62861699167402   11.68205169294727
Fe        7.86595038577882    6.19288255244592   12.60211598153858
Si       10.62643290943041    5.61170903244943   11.21864301205042
Si       10.21166686613264    5.81914790234117   14.25376474543487
N         5.07002010417551    7.44945073016123   13.16944365555548
N         6.79203933726185    8.73435414670374   13.25489932025995
N         9.64107071167277    5.88917885745967   12.62064864041013
C         6.41113741308943    7.45071892156263   12.95929765243057
C         4.62923696385631    8.68374766203185   13.57899036268969
H         3.59729705308581    8.87261996020765   13.79152562383770
C         5.70601757074442    9.49144968874727   13.63172629949972
H         5.78823601609363   10.52990067253936   13.87410037523335
C         4.12279929714375    6.40725252597828   12.97039697975596
C         3.87855883305724    5.49958840645144   14.00273920339541
C         2.84545856087097    4.58819354910364   13.84415127679507
H         2.63067461489037    3.88083704276325   14.62956713199218
C         2.08609837729487    4.57391497705178   12.69008756878640
H         1.28405481352654    3.85863644544031   12.58304976467370
C         2.35603550086444    5.46370933104106   11.66962142829944
H         1.76439177411931    5.43322468837382   10.76816157204975
C         3.37609395568626    6.39723346538732   11.78965120638737
C         3.66255100967194    7.36433284898355   10.66578989448182
H         4.56117610542691    7.93462961664711   10.91350458970301
C         2.50203345682120    8.34597272231825   10.48489961444800
H         1.58688134847409    7.81672681159227   10.23173990432432
H         2.72629888714388    9.04791708374242    9.68458819641539
H         2.32790716674757    8.91130434830514   11.39843262664542
C         3.95015197507394    6.60910376078238    9.36800694293249
H         4.72877881676305    5.86971054707242    9.54416757084155
H         4.28537612950537    7.30171559069259    8.59893812815840
H         3.06356969174649    6.09759795805329    9.00460596870145
C         4.71640614025477    5.51108182109892   15.25807796295626
H         5.60601373596032    6.12067558680367   15.07070052273085
C         5.19156838865534    4.10256692514877   15.61475754159603
H         4.37355264983599    3.48954526822830   15.98357969774676
H         5.95424938431429    4.14980358838271   16.38939296099608
H         5.60992915672324    3.62205137692105   14.73355998652882
C         3.93373279164568    6.13676168420077   16.41535372373680
H         3.65259025446899    7.16158791214582   16.17997101892691
H         4.53936559485980    6.14407614212333   17.31900997827637
H         3.02639586822157    5.57001494103393   16.61160394567038
C         8.08442277643013    9.30569510324648   13.11032437069729
C         8.64773514659286    9.39722289255918   11.82678199089582
C         9.86506538311313   10.04800867296328   11.69030477590920
H        10.31256158651597   10.15333053696049   10.71644059662388
C        10.50971922156695   10.59461630763434   12.78463763598327
H        11.45712572573458   11.09680550197664   12.65704039522682
C         9.93374108561211   10.51568002261849   14.03530990473581
H        10.43517997727481   10.96549116664914   14.87771554576228
C         8.71189297372718    9.87987650539873   14.22348246245208
C         7.89177114867190    8.89156021814259   10.61711962232495
H         7.48342862983322    7.89614342577799   10.86466279920052
C         6.73357271833177    9.84660726710924   10.29833939959417
H         6.03921170044728    9.94257497871100   11.12818581451264
H         6.18386896169874    9.48350319676864    9.43342362308959
H         7.12389599611175   10.83669405478107   10.06789970050366
C         8.75921475454466    8.74473662966768    9.37021039777514
H         9.03308652934404    9.71818406016711    8.96742248856445
H         8.19854954759287    8.21418614509967    8.60455472344625
H         9.65722462974841    8.17830651022587    9.59070074018798
C         8.09748645709210    9.88379634055070   15.60718767221145
H         7.21468471001436    9.23704539704833   15.61337499867182
C         9.06644595363955    9.36205759492131   16.67198384705882
H         9.89342169039835   10.05091111455868   16.82164460380374
H         9.47169954732988    8.39612962598950   16.38896099300720
H         8.54269588058233    9.25643093233075   17.61970490304373
C         7.65916627753780   11.30540222882787   15.97983571405286
H         8.52241111623190   11.96308593679756   16.04628406354628
H         7.15607902715052   11.29992703313895   16.94416719840433
H         6.97946071820359   11.72262265548008   15.24070153409929
C         7.55318144228685    3.12654991438166   11.82410327211622
C         7.79072379501675    2.33519492511945   10.70443317120836
H         7.32555069445687    2.59956142623382    9.76507203130970
C         8.60204987297151    1.22200988280180   10.79836591093295
H         8.78635312801351    0.61724796522702    9.92134623044826
C         9.17423017974746    0.87415075885052   12.01175710974385
H         9.80391746095722   -0.00066650801896   12.08609266348478
C         8.92574661627218    1.65120426418602   13.13110573196998
H         9.35130721102921    1.37090061535745   14.08544740741402
C         8.12544963874400    2.77403489714532   13.03898782648330
H         7.93878595751519    3.37934932369511   13.91507121738647
C         9.41796703544815    5.43743083165213    9.75503361768778
H         9.21005087846735    4.38771727993641    9.57572218925645
H         9.81351972973139    5.85254938236486    8.83439163086929
H         8.46721686778993    5.92205654158015    9.96776911168547
C        11.87548260881863    7.04054586132136   10.96997405851207
H        11.49560161658218    7.98028504422301   11.35616891873213
H        12.12102793081587    7.17722943961201    9.92162279069346
H        12.80154784667293    6.82424617954350   11.49246994118386
C        11.62203591281751    3.98995278457639   11.34033897181675
H        12.39294194812984    4.04796950580477   12.10091769911957
H        12.10750580365701    3.77159048321008   10.39398018159041
H        10.97782748324111    3.15044620653214   11.58147154832208
C         8.57507450555678    6.01530570546230   15.23133916203874
H         8.18135997007762    7.02336012632105   15.13812158869435
H         8.68825612908896    5.79856987122888   16.28746448048595
H         7.82477163112052    5.32874765837925   14.83602929893302
C        11.43725474273962    7.23186682375412   14.64142510287863
H        12.36929869150980    7.06239156600577   14.11350833561527
H        11.66653819759271    7.27793740662564   15.70123641810415
H        11.05888965831274    8.19992973633208   14.33263235070018
C        11.07029345725944    4.20281576571178   14.79672101124974
H        10.65102666934707    3.33878126902253   14.29511406641906
H        10.97538340554896    4.04867805916987   15.86773930734260
H        12.12934653665901    4.23598286639227   14.56430886037716

