48
CSD_code = RIRJOR | q = 0 | S = 0 | Stoichiometry = C23H18CrO6 | MND = 6
C         4.56629999582228    3.45725801386818    1.31388733023436
H         3.88319743078624    4.30852253773879    1.36923023815193
H         5.50612428172310    3.72634293041466    1.79758013980945
C         3.93534944076916    2.26663861363114    2.10154461303681
H         4.62520149202143    1.42094059930935    2.05697181356120
H         3.81942186226265    2.57668990361507    3.14177279149638
C         2.62017180260476    1.90401816687295    1.47604099019651
C         1.42092593681481    2.49514998600115    1.89309142963490
C         0.29106279670343    2.38149545972282    1.07977874336527
H        -0.64207417692439    2.81606692192599    1.40900241466081
C         0.36826370563539    1.78050404303982   -0.16213104113293
H        -0.49396915318944    1.79157987920588   -0.81261508482854
C         1.54637288045077    1.17836773471535   -0.58328763583579
C         2.63232309306218    1.18052311092237    0.28756363457805
H         3.53275361410123    0.65217621402644    0.00967794276117
C         1.75672253828355    0.77384467318507   -2.00958387124025
H         0.81009915129244    0.51336438225502   -2.48497158648558
H         2.43086333700628   -0.08224818808823   -2.07096129016081
C         2.39549916880995    1.96385871761036   -2.78999673804063
H         2.52994128895917    1.66349207530375   -3.82998048640329
H         1.71126712381627    2.81273300557187   -2.75159110741748
C         3.70613333742487    2.31172605116262   -2.15248867775503
C         4.89338678096087    1.71052812714010   -2.54810684057200
H         4.92507628656182    1.13310527021737   -3.46116547888442
C         6.03088655295413    1.83088347347651   -1.76711375726779
H         6.95821706387839    1.38457222421106   -2.09581093647792
C         5.96214170740982    2.44195693485440   -0.52615378875120
H         6.82202139952861    2.43271456814547    0.12839870647437
C         4.78494114204862    3.04970220773364   -0.11066762101581
C         3.69799007961854    3.06048940795834   -0.97934967746057
H         2.80716951902295    3.60676828203645   -0.70508539064091
C         1.32748650336521    3.27038057156725    3.14486660467148
O         1.31727872722787    2.60251425566767    4.27126044227629
C         1.34701802908345    1.17031703533267    4.30120165640639
H         1.05439013081104    0.88253374375699    5.30903484502149
H         2.35365006995269    0.80365372769334    4.09183087288005
H         0.65244690528209    0.75111288218331    3.57081918098700
Cr        1.14946494678903    5.25391248758287    3.24211810776797
C         0.92215185372281    7.11150895764382    3.30228467994991
O         0.76808001898737    8.24949397822676    3.34467463940568
C         1.33643169753851    5.45591385871757    1.38737112815223
O         1.39209073231197    5.71677929757705    0.27030672674547
C         0.90587334914485    5.26168369695772    5.09275511844423
O         0.73835993497098    5.41552207371766    6.21716090867988
C        -0.67948087590350    4.91043382376115    3.10565962544077
O        -1.78615014094079    4.60073037858812    3.12837405830942
C         2.97253292574483    5.36087192167075    3.65163669051033
O         4.05169371169103    5.34097198157036    4.04416493675979

