53
CSD_code = RIRKAE | q = 0 | S = 0 | Stoichiometry = C25H21CrNO5 | MND = 6
Cr        2.16578494959421    4.15367361187961    1.48279087387029
C         1.62660495662154    2.52231290959655    0.76976728624323
O         1.25060425864599    1.53085089212144    0.32183179526871
C         3.46994161980758    3.18631125801502    2.42246985280584
O         4.15736077628661    2.44000927990151    2.96109246104507
C         0.96960327411927    3.92882596792589    2.89086527080053
O         0.16527832393778    3.79541554864600    3.70295927081562
C         3.22918891357760    4.48451993854579   -0.01837759408586
O         3.77275112265133    4.70530736042302   -1.00703394429669
C         0.75232280767592    4.84605660793628    0.49165334879021
O        -0.16190738637355    5.08685137803448   -0.17051094561664
C         6.77192906625673    5.56960969828855    6.36575724680194
H         6.40854487158659    5.38334208786231    7.37738935552454
H         7.49419435169970    6.38753452563487    6.39474045677631
C         7.49810461326968    4.28751017547712    5.85367095893394
H         8.30853771693553    4.04964973602608    6.54412280025291
H         6.78420506159093    3.46255897752349    5.84704233378079
C         8.02028364262457    4.54515824747836    4.47309769317704
C         9.28351441751323    5.07898131915950    4.25670850928614
H         9.99376796959184    5.12613358513789    5.07006602040887
C         9.62898518798328    5.57025217128443    3.00863357861461
H        10.62321925589410    5.95824177597354    2.84024095781575
C         8.67913306441641    5.64962484573449    2.00371875680945
H         8.92073003072936    6.13844259233590    1.07053908911343
C         7.40977132531893    5.12167325027167    2.19814251314636
C         7.13138819842308    4.48521962243757    3.40392356479907
H         6.17915899906433    3.99327080981474    3.53544369125735
C         6.27223534894888    5.43831280839393    1.27641072159389
H         5.55316267544716    4.61599172900824    1.25814976302738
H         6.62560180374978    5.62120934553455    0.26076992080087
C         5.53991904375760    6.72129806932858    1.77902355417622
H         6.25550465495196    7.54634992999354    1.78131098264831
H         4.73542956621648    6.95176968128826    1.07836830092433
C         5.01471923355303    6.48174541375341    3.16449718671006
C         3.72259171560420    5.99431686666987    3.39377169397255
C         3.39598748978335    5.51623715640216    4.66317506148849
H         2.39036998025577    5.16807051837146    4.85230534559951
C         4.35634143326437    5.41183406220597    5.65184088853061
H         4.10513644231005    4.94023145609813    6.59061673126485
C         5.63914134821296    5.89942134157875    5.44303272700437
C         5.91696667112878    6.51042178021738    4.22350778966871
H         6.87997054321708    6.97681279934506    4.07427000467025
C         2.70243404902111    5.94201919742592    2.32784413938417
N         2.14969476360110    7.10011458489833    2.04352044508141
H         1.41356546059587    7.11509617315145    1.34483401615260
C         2.31900489829621    8.36659512636336    2.73313545274183
H         2.38952290205123    9.16900982092017    1.99039910130716
H         3.25561993731302    8.34380019434506    3.29885056812825
C         1.18354141524120    8.65973605222614    3.67546387497628
H         1.20540733982017    9.65757519319324    4.09100693793803
C         0.23426264456626    7.80737138026218    4.01020845854246
H         0.19313741825864    6.80324270061103    3.61857925183949
H        -0.54457016860463    8.07767844493237    4.70096187970159

