43
CSD_code = RIRMIR | q = 0 | S = 0 | Stoichiometry = C20H18O4Pd | MND = 4
Pd        2.01756414836211    3.32621164345836   11.11671067017689
O         2.57881545245094    3.29514243159089   13.03878487920507
O         0.10295568998569    2.98177141833175   11.61016618129555
C        -0.33121169251362    2.87207380586182   12.79208311757528
C         1.80409600730893    3.11575277581011   14.02886206345639
C         3.58856235041635    3.95234931974434   15.52389492353042
H         3.94783883362322    4.51298377899677   14.67402605320652
C         0.41945792366021    2.92224131198959   13.97011730642503
H        -0.11891074202950    2.82986303298809   14.89932915874269
C        -1.82377278031255    2.66128069807560   12.93772552185535
H        -2.25810733287285    3.46958474955614   13.52084253714573
H        -2.02036254705658    1.72411234005402   13.45265568946993
H        -2.28305509392968    2.63722228890192   11.95351000716623
C         2.64974986259556    2.47705712884238   17.66637096425048
H         2.29109242414601    1.89027521981189   18.49951353237964
C         2.45722582674488    3.15403020692760   15.36592536404203
C         1.99907944933850    2.40732045414650   16.44794606938713
H         1.15005610167303    1.75086818158342   16.33314171650672
C         3.75993542244352    3.29094949328901   17.82119052061868
H         4.26122655975214    3.34550267672664   18.77634084206051
C         4.23056309743272    4.02570198736881   16.74512675118051
H         5.10153576789518    4.65403536190101   16.85984520757175
O         1.45616843561012    3.35816658302370    9.19464722443503
O         3.93199017382637    3.67165251581725   10.62337083156531
C         4.36615328101089    3.78143188576747    9.44145779573254
C         2.23088962198433    3.53773576728347    8.20460431593384
C         0.44651308013030    2.70093287604641    6.70953647422041
H         0.08722856843070    2.14031132500574    7.55941382990099
C         3.61551122271557    3.73131855540768    8.26340068670878
H         4.15390210550079    3.82376110821166    7.33420943975043
C         5.85870827645461    3.99232203973479    9.29579055867637
H         6.29292507020129    3.18485176901041    8.71149675431911
H         6.05508750087474    4.93021414438664    8.78208353903835
H         6.31818784799815    4.01517101867104   10.27995630636632
C         1.38527933108040    4.17625626707702    4.56704071144839
H         1.74390215586050    4.76306528353339    3.73389978836498
C         1.57782390789278    3.49929022447835    6.86750086347333
C         2.03596950794940    4.24597863418212    5.78545511482620
H         2.88497944461937    4.90244567790284    5.90026396179341
C         0.27506817749576    3.36238755032001    4.41225350197730
H        -0.22619697080166    3.30778424858659    3.45708717900981
C        -0.19552545273360    2.62761330734656    5.48831861402621
H        -1.06650001521494    1.99927891225058    5.37360343118413

