104
CSD_code = RIRNUB | q = 0 | S = 0 | Stoichiometry = C54H39N7O2RuS | MND = 6
Ru        4.77956128570794    3.48377249530976    5.49807500455621
S         4.88903442525939    0.19055177688755    5.41694980767427
N         2.85610103911060    3.13928967090196    4.87378726921705
N         5.27866106396242    4.14961936293967    3.63925860736521
N         6.77003042414711    3.37885613695618    5.98332104989885
N         4.27782195712062    2.79514113055729    7.33700427556984
N         5.12816869806667    1.69463209362312    4.82508735774643
N         3.87400857523190    5.28514348609227    5.90842799704826
N         5.09783178127160    5.32939434484222    6.34221989486494
O         5.68688837271865   -0.71197263067568    4.62556347405183
O         5.05813741069442    0.15002252801204    6.84424226778016
C         1.80996067720712    2.78789757906490    5.66588871210225
C         0.62774864347027    2.70276915422948    4.86294107219461
C         0.97915320255292    3.04916039232552    3.59805276860589
C         2.37991357165698    3.34568821689981    3.61913722378314
C         3.09138832413087    3.90188136313200    2.54952174067790
C         4.42716404428876    4.30382385098661    2.59195567338859
C         5.15007461460488    4.85227466167580    1.47381637764559
C         6.43697578119006    4.99413889839887    1.86545220424030
C         6.52060227708253    4.50419550316052    3.21646773454742
C         7.71162457138761    4.31454080779714    3.91751147018746
C         7.80824486714357    3.72757642171437    5.18449638817004
C         9.03744611074816    3.39480538010038    5.84401993258937
C         8.70837839046270    2.85600961022247    7.04563987012961
C         7.27731674250284    2.87478581802415    7.13502908611474
C         6.53450610965398    2.49952318979839    8.25691550159724
C         5.14364975573104    2.53658975809715    8.34495700042892
C         4.40298125716751    2.24639150167015    9.54530029844691
C         3.09234743153181    2.30157461430451    9.22164259080265
C         3.02359288109145    2.59429328651174    7.81164390925055
C         1.85377141816288    2.58762602275184    7.05144247030478
C         2.35852430140118    4.07807873817962    1.27588919394329
C         1.89440410216626    2.96711158837798    0.57799115919703
C         1.20757005391832    3.12375155981849   -0.61204137614333
C         0.97034893732966    4.39160530710949   -1.11675464128755
C         1.42543040642842    5.50243385613213   -0.42632422018473
C         2.11719410424609    5.34798338446838    0.76160029591774
C         8.97806292993380    4.70325405489993    3.25753010925290
C         9.77310081427381    5.70509915641547    3.80548180604475
C        10.95911207232000    6.07085292946341    3.19513216168416
C        11.36956088278411    5.43526211686385    2.03522603687164
C        10.58796316987371    4.43144376990378    1.48806720564448
C         9.39857917756941    4.06796226254153    2.09320482191182
C         7.26764546027094    1.96200344398611    9.42242707636658
C         7.07096885695114    0.62897209878054    9.77347959435183
C         7.74910850746653    0.08859458071445   10.85041581286260
C         8.62044888537011    0.87240178176823   11.59010400080235
C         8.81689393024591    2.19913109830735   11.24573048671308
C         8.14705570896085    2.74289344817775   10.16352284816426
C         0.56731626248033    2.35248735286543    7.74103496126975
C         0.33349096047432    1.18906665178524    8.46845460894146
C        -0.88129350728343    0.98582447982792    9.09789638526387
C        -1.87817507440290    1.94377097180075    9.01878622265324
C        -1.65165891280020    3.10966083773172    8.30683365552125
C        -0.44019940524890    3.31172205583393    7.67131504955494
C         3.16769757529201   -0.11998855805685    5.03891272749918
C         2.29118335601448   -0.48395937184194    6.03751362955531
C         0.95691000782463   -0.69529061252735    5.73181559993191
C         0.49842967943127   -0.53798338657016    4.43046304736405
C        -0.94431053900760   -0.75094660127949    4.08916442205349
C         1.40428069013796   -0.18480377509407    3.43356295791463
C         2.73684243972012    0.02348077320187    3.73376267628302
C         3.23183564474679    6.40020741705470    6.24229052220274
C         4.13094951174280    7.20963875582050    6.93430396643346
C         5.31469567580242    6.47482378276988    6.98021882105273
H         5.52393202347377    1.57364655755436    3.89645173803707
H        -0.34127583026100    2.41358953731502    5.21909672174180
H         0.34455872523360    3.12089710184609    2.73641896777247
H         4.72366382183129    5.08187614326948    0.51711862635401
H         7.26106761367617    5.37908948337240    1.29770216872808
H        10.01734878612890    3.53824664469761    5.43186503481991
H         9.36911919549959    2.47932073976189    7.80150584227460
H         4.84068428195468    2.04252068275085   10.50294793374517
H         2.24750744425692    2.15907567621855    9.86634729657522
H         2.08655965375899    1.97992677923218    0.97260443326950
H         0.85668034286991    2.25437849675618   -1.14894928561631
H         0.43234020987035    4.51338619768909   -2.04514279731753
H         1.23992470852615    6.49338547582816   -0.81442081443852
H         2.46627409446613    6.21372600467671    1.30561383216872
H         9.44941510042626    6.20093607381326    4.70919551632656
H        11.56601645048759    6.85353290439012    3.62649222310944
H        12.29712630318031    5.71923524244419    1.56067438916035
H        10.90719072576711    3.92795919101553    0.58725852835857
H         8.79368621650965    3.27712638385791    1.67409485746416
H         6.39750763516580    0.03307789452115    9.17538630788043
H         7.59877282426310   -0.94778266090183   11.11496780856729
H         9.14688890120495    0.44975387763173   12.43334312846121
H         9.49451768080247    2.81273123112463   11.82175591159835
H         8.29407373356675    3.77983079059234    9.89664624406361
H         1.10710340623233    0.43959160335190    8.52961287064120
H        -1.05097126136390    0.07518838860192    9.65419593090462
H        -2.82546515494999    1.78400115660457    9.51209419708689
H        -2.42158588008105    3.86512980755093    8.24734696141516
H        -0.26105803039135    4.22581566613657    7.12391960817849
H         2.67851308743995   -0.59557631874598    7.03799976445059
H         0.26273339044772   -0.97873203525871    6.50936293504378
H        -1.06147071943984   -1.66213657452183    3.50235018820455
H        -1.54753686471507   -0.84169211711036    4.98828764931290
H        -1.32028133565284    0.07921288550282    3.49367907812147
H         1.05260391175096   -0.07061558015490    2.41820417456818
H         3.44993178385680    0.29290413567960    2.96971763618860
H         2.20606751894528    6.57321809038957    5.98017815746532
H         3.95104363954819    8.18254964734039    7.34479629794232
H         6.26223949420225    6.72003241968172    7.41909928077305

