62
CSD_code = RIRPOY | q = 0 | S = 0 | Stoichiometry = C27H28BrN2O3Re | MND = 6
Re        6.11107663756112    6.87829992993560    6.60785447954694
Br        7.09194224967878    4.70764964672135    7.49995051450817
O         6.94707847336570    6.05774158156631    3.74699053785962
O         4.58338505478372    9.43048348913148    5.78572472877879
O         8.87939327222337    8.21526549134162    6.27040605059495
N         4.09036306317764    5.90084116977508    6.88047347882136
N         5.59999654820029    7.15961489670840    8.78977759624017
C         6.56831652205440    6.36978831793763    4.78554798281856
C         5.16559116489081    8.48674616776934    6.09148649222349
C         7.84780568529782    7.74393219385368    6.45817613738450
C         3.33299206058024    5.36305340477778    5.92698560403061
C         3.86565872827888    5.23730864362136    4.52816666675107
C         2.83553845007186    4.58708623528263    3.61208317798411
C         2.27844335649771    3.34692532303040    4.32716395792222
C         1.29537075354893    4.31170311502018    5.01856717198174
C         2.02955513423351    4.90594908062281    6.16973576323995
C         1.50569698747469    5.04484185166974    7.44145812476234
C         2.30465456237520    5.57780056579654    8.43414733304326
C         3.60576522541250    5.97324019851532    8.13506634526598
C         4.49451020886451    6.49498886537713    9.18031236733539
C         4.21686937915846    6.27346658859703   10.52595593998775
C         5.05050637794680    6.80117894894080   11.49309884391035
C         6.14988745771032    7.53614837166275   11.09249207058860
C         7.09839250918442    8.20585281241440   12.02419107606950
C         7.34721900732981    9.61365858847211   11.44813456184852
C         8.38249409196813    8.94608713688963   10.53119324974499
C         7.65739428936403    8.38943717712728    9.31197456581066
C         6.40531369879916    7.66794288410313    9.71913748436335
C         1.44576343711408    5.24789371301691    3.78529282650181
C         1.37092383435357    6.75280158068520    4.00788254639535
C         0.48369609776661    4.88184820925776    2.66032345889002
C         8.55479462711193    7.84749032480320   11.61053373209166
C         8.84639729522123    6.41961737071709   11.17001149510438
C         9.57226502484026    8.23823582034533   12.67702112023244
H         4.14726347977933    6.22621433757862    4.15321489168680
H         4.76949373318329    4.62033899286176    4.55264803885070
H         3.22050674028753    4.47522857048832    2.59919664340210
H         1.79166250603235    2.63961933726802    3.66322234717026
H         2.96616732196953    2.81168877930684    4.97974281012078
H         0.30033592776654    3.95964741751770    5.28764627350280
H         0.49254516676928    4.73834700547497    7.65480229441171
H         1.90891530220449    5.70388237962999    9.42751939156263
H         3.37319136778789    5.67247601354800   10.81926996040657
H         4.84963492902263    6.63918367386319   12.54145950872409
H         6.81129120331105    8.09823500259773   13.06939258342869
H         6.49919227646425   10.09178098169857   10.95923097529256
H         7.77973473021475   10.30149977540242   12.16784697172103
H         9.26559652346277    9.51467890546715   10.24192523963503
H         7.40318130852904    9.19532754843880    8.61533402262410
H         8.31218785292487    7.68813104086466    8.78722920361364
H         1.97470991180308    7.09078334332105    4.84492210484901
H         0.34003460948984    7.04518210799301    4.20029985935672
H         1.71123270632690    7.27216246256880    3.11434953508704
H         0.75639685274397    5.42006257760494    1.75482699900747
H        -0.53264338329912    5.16247077449879    2.93045988857774
H         0.49543777549431    3.81928747530689    2.43869195286396
H         8.86147402298807    5.76323612223328   12.03821474111230
H         9.82387784076755    6.37448646483273   10.69420340129666
H         8.11544965480153    6.02259611408650   10.47297994769706
H         9.43390495788282    9.25697736777225   13.02645728179988
H        10.57819402044269    8.15245526011194   12.27128382360251
H         9.49247939440541    7.57030047217547   13.53261182596551

