137
CSD_code = RIRPAK | q = 0 | S = 0 | Stoichiometry = C58H74N2O2Zr | MND = 6
Zr       -1.59194215978531    0.69064585738749    8.29204587976568
O        -0.14233477721975   -0.51781821374092    7.89402726669160
O        -3.21668605329795    1.58904727804916    8.82530017679972
N        -2.92656375614314   -1.35766470591109    7.61290059840192
N        -2.29713781926329   -0.76303185281737   10.24915749769347
C        -0.28325130877711    2.36251636201872    9.13131711223946
H         0.75227541894673    2.14633544624908    8.83950366630971
H        -0.64293811681060    3.26551563617578    8.62072056906411
C        -1.65649153601015    1.67028372847319    6.21976350222945
H        -2.39869186962266    1.22715761334234    5.53808619034031
H        -1.94559442395668    2.70902979387073    6.43246243079004
C        -0.43320096326265    2.50347502547044   10.57062364538913
C         0.43802303947343    1.87723547603945   11.48189916653552
H         1.28774237510743    1.32368185829997   11.10238979075792
C         0.25467815756491    1.98478859600662   12.84663815881707
H         0.94424914567780    1.49104691630114   13.51806950987316
C        -0.79287265399280    2.73241673896175   13.36135370486430
H        -0.93225633448062    2.81765942808820   14.42848787891517
C        -1.64373532696617    3.39239247466189   12.48506056392939
H        -2.44973107553555    3.99868289603492   12.87399122586615
C        -1.46598312292920    3.28839857331287   11.12145554788949
H        -2.13469262597626    3.81528556370370   10.45331474644587
C        -0.32146048800150    1.64355260889538    5.61168500453292
C         0.61604721506468    2.65561376105116    5.87856185022378
H         0.33910864044488    3.47197197615637    6.53448390091372
C         1.86612891438299    2.65754519999014    5.29469481479093
H         2.55817822281342    3.45845718747633    5.51714394760659
C         2.23306330783564    1.65441111583309    4.41135668121069
H         3.20899974869038    1.65986611150119    3.94902159002626
C         1.32144289469874    0.65366853716606    4.11871546789701
H         1.58453462900234   -0.12748133934922    3.41849742692963
C         0.06917814687389    0.65089684550677    4.69985775168726
H        -0.62864350302607   -0.12887979439864    4.41925880858749
C         0.14911034997940   -1.70646271909682    7.40048877613941
C         1.44042950426983   -2.29471456916018    7.52130038375917
C         2.62695031632345   -1.48629730300199    8.03929164670365
C         2.80514859116567   -0.25773148336908    7.13447805076199
H         2.98393719777122   -0.58778360780066    6.10893796383304
H         1.88644242757376    0.33285200504490    7.13755605776755
C         3.97273372291923    0.60123083312912    7.61409633946859
H         4.06605103347942    1.46892670586463    6.95214632515682
C         5.26273875578464   -0.21433988790030    7.57994754495065
H         5.46735220814835   -0.54649618971461    6.55957761676837
H         6.10539469278587    0.39895666987081    7.90874477148301
C         5.10694432535266   -1.42360012893810    8.49854356139324
H         6.02475506495244   -2.02402672259160    8.47156736498285
C         4.84608412376195   -0.95996366657694    9.92886933189715
H         5.68199862487157   -0.35330726686840   10.28534309047354
H         4.75412899293659   -1.82522535532548   10.59045600636331
C         3.55795337470169   -0.14169197194910    9.95439093264003
H         3.36383627410384    0.19142416910837   10.98191742083691
C         3.71547080859298    1.07384624221746    9.04274857106772
H         2.81164231432199    1.68550134853646    9.07089072030094
H         4.54761463958470    1.69227086317904    9.38882046620206
C         2.38513864228504   -0.99661520702343    9.47333400476317
H         2.24965298231135   -1.85417101441038   10.13941355912547
H         1.47235474046024   -0.39786550649243    9.48057372323608
C         3.93860205111176   -2.28451560536407    8.02006422255839
H         4.14827647300306   -2.62558330634558    7.00425059554332
H         3.85483535847605   -3.15720509130240    8.67273595003598
C         1.61169352609539   -3.59950533202914    7.09069653039734
H         2.57017331296652   -4.07939289632446    7.19856707696220
C         0.60149394441934   -4.35353574982123    6.50530461849866
C         0.86157912808913   -5.76640644169729    6.07291449346846
H         1.59273460722221   -5.78888988201669    5.26509723945192
H        -0.05263289600808   -6.23833911998566    5.72094585804821
H         1.26150866095530   -6.35373518805400    6.89861673703205
C        -0.62185278120374   -3.74625093319357    6.30648883811139
H        -1.41415903063492   -4.28778326532259    5.80553352118075
C        -0.85399253124304   -2.44744833722534    6.73380272972755
C        -2.18552053159337   -1.81517613186818    6.42271942167999
H        -2.02377404500911   -0.93673970340844    5.78606399169584
H        -2.79200682353020   -2.54077349076429    5.85394504056810
C        -2.85597994233737    0.17536283182182   11.23857634681271
H        -2.12855265091563    0.98104383630979   11.38298381143004
H        -2.98886672440505   -0.33058385012703   12.20938941920058
C        -4.17085729146527    0.78285887675410   10.82755862481476
C        -5.27029587879950    0.63213333568371   11.65741226989335
H        -5.17979998577198    0.02598433371804   12.54957631177818
C        -6.47002951442333    1.25278430106098   11.36869487349998
C        -7.67656469593720    1.08502773921697   12.24469182070736
H        -7.88384421046454    2.00815883389212   12.78661518689583
H        -7.52067908153011    0.29060274824444   12.97103129841044
H        -8.55585555038464    0.84599277076234   11.64769182000864
C        -6.51938686895066    2.08648574918815   10.25805526114727
H        -7.45064607470960    2.59852720142081   10.08104270094826
C        -5.44800912246219    2.28291316184268    9.40228867012915
C        -5.53252968932952    3.30380389043848    8.26927339261317
C        -4.42264521226917    4.35047049355979    8.46209244604102
H        -4.55309106448476    4.84021897188203    9.43077239994095
H        -3.45402693433020    3.84390394537788    8.45997584779385
C        -4.46069185592423    5.38959718423352    7.34251346893000
H        -3.65976057124994    6.12053186898778    7.50505641813806
C        -5.80975656758567    6.10428123838241    7.34248759132188
H        -5.96469489239930    6.61316767105785    8.29680066575098
H        -5.83470400799410    6.85874601939738    6.55243415437297
C        -6.91379313341125    5.07447530197707    7.11863510259241
H        -7.88878172333340    5.57690146921927    7.12807145481377
C        -6.88098851555125    4.03750183322457    8.24035393651967
H        -7.69029684987583    3.32155936321358    8.07848522420504
H        -7.04755854598982    4.54376593167226    9.19349179077251
C        -4.25792081782945    4.70380179863764    5.99325687344892
H        -3.28088003039031    4.21837983357275    5.96437172466780
H        -4.28538328013353    5.44517855784972    5.19077855935342
C        -5.36269660643035    3.67044612538888    5.78174496525431
H        -5.20904410210812    3.16411964204595    4.82087603014344
C        -6.71484613682549    4.37898453118905    5.77433729155546
H        -6.75035916214205    5.11107040329870    4.96406170253892
H        -7.51709832915439    3.65572289473662    5.60757004604775
C        -5.32543074862105    2.63272406117329    6.90425788078865
H        -6.10513127036927    1.88219689553407    6.74414652676368
H        -4.35304375712935    2.13706697822748    6.90801679491063
C        -4.24778540215664    1.55817894046061    9.64785001253029
C        -0.99915645341307   -1.23044954960424   10.74082134172038
H        -1.07489277079112   -1.67356728085574   11.74433718173741
H        -0.32126326096469   -0.37515843808394   10.80938332438484
H        -0.57350165278503   -1.96771386987805   10.05835530449411
C        -4.22838683582074   -0.84675420811693    7.18039266109334
H        -4.81907381168780   -0.52453201178299    8.03873632876178
H        -4.79843736355504   -1.59738143850345    6.61421617956962
H        -4.07459770619651    0.01564884310321    6.52864019570340
C        -4.11988323656397   -3.49345808391721    8.30327611495073
H        -5.10816363963395   -3.03138943482195    8.33042959410325
H        -3.96133833685068   -3.91703410555920    7.31008799737808
C        -4.08505146772476   -4.60715540566393    9.34450137441222
H        -3.11659427574862   -5.11117209166144    9.31408807289741
H        -4.85478788585715   -5.34682651199312    9.11713055418099
C        -4.31516126211696   -4.02186518938912   10.73278698629091
H        -4.29213782847576   -4.81482106734676   11.48242077676250
H        -5.29982038563780   -3.55089654727022   10.77366124042830
C        -3.23532087738502   -2.99073524299708   11.04443921995353
H        -2.26782364245147   -3.49536431678247   11.03265672095916
H        -3.39923090235597   -2.58024490928651   12.04239795368988
C        -3.25683466671618   -1.85964942991315   10.00469111288784
H        -4.25448183584871   -1.40174399599672   10.03260770490076
C        -3.03509229765015   -2.44714791102953    8.60296585645837
H        -2.06572487778975   -2.96321397950667    8.59542831596196

