39
CSD_code = RIRPEO | q = 0 | S = 0 | Stoichiometry = C12H20Cl2FeN2O2 | MND = 4
Fe       -2.54239998527955    2.49910782339014    1.71342891757523
Cl       -3.36643837438924    4.26149871825474    1.17741595039966
Cl       -1.99633476094137    0.70767959385930    2.41644790614562
O        -0.91242466382445    3.06252134699175   -2.49290238680372
O         1.08953266170377    5.17641596885069    1.24406316719175
N        -1.56467889842951    2.24619012387222   -0.52181628809252
N        -0.31399996063071    3.52502517588437    1.77417522035997
C        -2.36644376359467    1.50256198271686   -1.49122113719374
C        -1.93510003277626    2.13556135183169   -2.84271453305190
H        -1.51972199295076    1.40362864087428   -3.53938713181629
H        -2.74873474781112    2.68045397953693   -3.32900737272686
C        -0.80397480640990    3.03953627936062   -1.14725607632143
C        -3.85107700599832    1.69652916918193   -1.19546775719269
H        -4.06775968284875    1.32842722286086   -0.18926408036034
H        -4.45399540850757    1.14304503160024   -1.91077586500887
H        -4.11501674879241    2.75082936050886   -1.24070558529325
C        -1.98781940369695    0.02536011454088   -1.38841499422031
H        -0.93781156470974   -0.11663594752716   -1.63436545282740
H        -2.59748153564455   -0.56817054882971   -2.06482153421799
H        -2.14782180128908   -0.31246537123872   -0.36755089952463
C         0.28566796708424    3.91139025515260   -0.61239434654131
H         0.22980226248419    4.87756093953587   -1.12544152358232
C         1.63291910358500    3.25055899300306   -0.96667284630913
H         1.71384235196138    2.28870535328307   -0.46510544772532
H         2.45140532745794    3.89041238070885   -0.64769523271027
H         1.69684119596845    3.10027626400287   -2.04111107545599
C         0.27793198908945    4.16804717825364    0.85992197361845
C         1.02126020226026    5.24537546713962    2.66470159379415
H         0.59697869234229    6.21284183655682    2.94702887385360
H         2.03289128521463    5.15977765910341    3.06786471262103
C         0.10833716797060    4.05542328163867    3.06894729315931
C        -1.11011256407736    4.49231156151819    3.87713408792925
H        -1.66777974320187    5.25894381918179    3.34369210656208
H        -0.80219458777797    4.87882760107802    4.84527845980962
H        -1.76553343548360    3.63116318170691    4.03190870911941
C         0.87284637096250    2.95508164692136    3.80489265945394
H         0.23476240472373    2.07985477373532    3.89758386351224
H         1.16404067369473    3.29592539165146    4.79512170425730
H         1.76299581256263    2.67172239930796    3.24758436761523

