37
CSD_code = RIRTIW | q = 0 | S = 0 | Stoichiometry = C16H12CdCl2N4OS | MND = 5
Cd        0.33668052250422    9.41641077965879   -1.00100094389225
Cl        1.90004324716944   10.79350428630692    0.09092578546287
Cl       -1.07845443095529   10.44215695714618   -2.52961769290367
N        -1.22108624028972    9.65545775081788    0.98735750970951
N         1.86923241032102    6.81077576055034    3.27850798508954
N         0.79152652664178    7.92393450468329    0.88621595920536
N         1.69742658603544    6.97693547288515    0.66520686126871
H         2.14529534268179    6.56417096588187    1.49681498657545
O         1.62872961839271    7.35073594645972   -1.58018640464740
S         3.78993418559757    5.51707604807164   -2.37665602638143
C        -1.96575924666506   10.74725512452026    0.90762706487779
H        -2.55475869741279   10.84708353230680    0.00388848787137
C        -1.99629523804016   11.71538018584165    1.90241909647050
H        -2.61496353133662   12.59152164205648    1.79287072050620
C        -1.19025190650534   11.54067834944166    3.01506713624685
H        -1.15213490348195   12.28825508236853    3.79338334212879
C        -0.41545532376938   10.39669267883112    3.11009393452726
H         0.25594991315808   10.25632183774938    3.94279106315029
C        -0.46905002182341    9.46313467187441    2.07625813682464
C         0.39970207492280    8.27147640671150    2.06079481941919
C         2.23124440258606    6.16080766147187    4.36857214850960
H         3.12692972472394    5.56043616664900    4.27522986282484
C         1.52942298375300    6.22352715410317    5.56156017696831
H         1.87051271591957    5.68424396306237    6.43031836437433
C         0.36785932704120    6.98108947902021    5.59071060078854
H        -0.23028164745159    7.03419806145022    6.48832399883710
C        -0.01974881364708    7.66650396427583    4.45335581046026
H        -0.93418581771328    8.23720888310520    4.43939419661108
C         0.77782684114373    7.58665932483766    3.30680761357211
C         2.12745482839569    6.77246076776964   -0.62281811108587
C         3.20527490305152    5.81013449084271   -0.77257892061013
C         3.88788309884982    5.06110055765239    0.15852398729554
H         3.69452389917223    5.08635738649386    1.21585926938519
C         4.87546981949364    4.25389944118230   -0.42356714074109
H         5.51732663828093    3.59592518949011    0.13377886111240
C         4.93306847102947    4.39812943588570   -1.78028367011332
H         5.59540773830100    3.90036008841110   -2.46084886969959

