27
CSD_code = RIRVIY | q = 0 | S = 0 | Stoichiometry = C6H8N6O6Zn | MND = 6
Zn        2.46851579613375   -0.00000649660018    0.00002541432888
O         0.76513964460073    1.99903795252531    2.95513022171682
O         1.30678462350724    0.39767567201163    1.50677079089746
O         1.15482661499544    0.93154857306594   -1.59018960262447
H         1.69935170887431    0.75470505060872   -2.36643414636858
H         0.29816003648875    0.51781262460087   -1.72950054460392
N         3.15931290472498    1.86423857222247    0.32327429744739
N         3.46408755591769    3.99394773158234    0.36137299617689
H         3.78218169532067    4.93701800537141    0.18919431311506
N         2.50202978924571    3.76048307723229    1.25923191302774
C         1.35733739036930    1.57701488557190    1.98728248538187
C         2.32618403544354    2.46607569739295    1.21773495423191
C         3.85389379344617    2.84324856192327   -0.20331012552713
H         4.60845287211941    2.73773745044004   -0.95569919679438
O         4.17156146147556   -1.99882972998985   -2.95537881209249
O         3.63001126824600   -0.39758611184431   -1.50689277053132
O         3.78210899352533   -0.93146414874979    1.59033300991425
H         3.23745217587272   -0.75457660518373    2.36652272695400
H         4.63877359393571   -0.51769330977426    1.72974247404972
N         1.77781736199052   -1.86433125498889   -0.32312222495540
N         1.47299491378048   -3.99403276172562   -0.36151195834276
H         1.15491778873697   -4.93712750201086   -0.18943559462656
N         2.43502793784715   -3.76046008566061   -1.25936829149078
C         3.57958563783329   -1.57693504672400   -1.98735374832501
C         2.61080292855817   -2.46604673974703   -1.21780190838831
C         1.08332709236610   -2.84342276779481    0.20344153461552
H         0.32886038464443   -2.73803129375493    0.95594179281398

