40
CSD_code = RIRVOE | q = 0 | S = 0 | Stoichiometry = C16H13CoN6O4 | MND = 6
Co       -0.65619884827074   11.29894978416826    8.74301048573702
C        -2.22939093044415   12.26466859119052    6.46829625319856
H        -2.76583821126224   11.32722520376680    6.51749654487243
C        -2.57506269601359   13.25001164199392    5.54049708181719
H        -3.38624073999709   13.06081706574733    4.85570615001231
C        -1.89393580368555   14.44722620670348    5.51214198216637
H        -2.15189000133395   15.22154305238345    4.80558931779867
C        -0.85812789284192   14.65559542719005    6.43774509535849
C        -0.08308753386411   15.84764742863393    6.54896018743642
H        -0.28825904767548   16.65206296782313    5.85864690199248
C         0.87870675236005   15.98189381681968    7.49802482752743
H         1.45043374474736   16.89466921508252    7.57357428061592
C         1.15714775685227   14.93811617981704    8.42921934782552
C         2.10414399672335   15.00798919589798    9.46448656656164
H         2.69723578696756   15.90046330707931    9.59546043128059
C         2.24161072743919   13.92789531534602   10.30840820846221
H         2.94669731387300   13.95128305685648   11.12390488365801
C         1.45701533059235   12.78621674263366   10.12651781407166
H         1.53384324985555   11.93786232242695   10.79308270096455
C         0.41890274934567   13.74474063131550    8.32408191984401
C        -0.58332671799482   13.60323746665257    7.33079758951170
C         0.65562759842131    9.19305767863398   10.24259753561026
C         0.62911553908051    8.21640765395091    9.04213313289538
H        -0.00005388934660    7.37130142508063    9.33027075009684
H         1.64904950108319    7.83757502548341    8.92683528727656
C         0.11454732593482    8.80533617261973    7.73151080225404
H         0.39851437672988    8.14967723762527    6.89752087460932
C        -1.43948640701873    8.89333476900424    7.77928867236059
N        -1.24626536497814   12.42660906840414    7.33658714413650
N         0.57441949651019   12.68660611617650    9.14807428902718
N        -1.88445147755939   12.13009304265817    9.84903566220510
N        -2.55691049602030   11.57596396493166   10.63936494260615
N        -3.27900910856297   11.23773184878495   11.43886904458364
N         0.63918681317179   10.17769313348050    7.54176546832716
H         0.60145108822403   10.41344204916178    6.55060203654074
H         1.62001827713342   10.19567785407934    7.82336267247155
O         0.01871250858537   10.30255683865082   10.17367616559817
O         1.31981854519684    8.88641070069741   11.21365051330318
O        -1.88176761111234    9.98892883556105    8.26604588011446
O        -2.11469570084478    7.98328196548661    7.35406055526915

