26
CSD_code = RIRWUK | q = 0 | S = 0 | Stoichiometry = C13H11ClTi | MND = 14
Ti        0.00000000000065    3.21516740347319    4.42676843527965
Cl       -0.00000000000103    3.03002477899750    2.17995456947736
C         0.70904661229698    5.32384028145820    3.93886111683979
C         1.14328598176327    5.06402373297680    5.25576610361256
C         0.00000000000007    4.90845147019700    6.06809359951480
C         2.10059207588675    1.68394874736326    4.79287267771058
C         1.32822793748266    0.91148585923038    3.93452418133708
C        -0.00000000000012    0.91768471346532    4.44250772541338
C        -0.00000000000008    1.59149813415091    5.72561694448104
C         1.30559555275730    2.16354485065720    5.88483946557073
H         1.33948407881457    5.58403606338474    3.09689711795814
H         2.17036001391907    5.09976546351566    5.59984854978511
H         0.00000000000010    4.78815208534236    7.14249170292068
H         3.16731933594038    1.84812659766696    4.69349022633228
H         1.66216086063700    0.44771226674410    3.01901622020316
H         1.72146950716127    2.57797684419119    6.79721785210832
C        -0.70904661229697    5.32384028145612    3.93886111683930
C        -1.14328598176322    5.06402373297600    5.25576610361235
H        -1.33948407881445    5.58403606338202    3.09689711795752
H        -2.17036001391901    5.09976546351453    5.59984854978482
C        -2.10059207588668    1.68394874736396    4.79287267771042
C        -1.32822793748271    0.91148585923091    3.93452418133697
H        -1.66216086063708    0.44771226674459    3.01901622020307
C        -1.30559555275725    2.16354485065776    5.88483946557059
H        -3.16731933594028    1.84812659766770    4.69349022633215
H        -1.72146950716118    2.57797684419170    6.79721785210819

