53
CSD_code = RIRZAV | q = 0 | S = 0 | Stoichiometry = C24H22O6Ru | MND = 6
Ru        3.56948614553891    5.67474361609131    4.43691235920579
O         3.99884956008409    6.28737911620559    2.62443415018018
O         3.07630936466763    4.01211587665558    3.41999242364710
O         5.43590614041651    4.94674435770972    4.90343013973681
O         2.84830457902304    5.23045547437492    6.28350239990260
O         4.08222753285658    7.42668562267172    5.31123069338132
O         1.71483708653002    6.33350613726538    3.93093376824548
C         3.25124717624560    5.65980265106505    1.80782547423641
C         3.01786847716602    6.09438269431809    0.45187345601871
C         3.47627447726901    7.35390932088858    0.04739855547483
H         4.01644758341653    7.95087172051964    0.76710918571451
C         3.24138990105456    7.80853655301673   -1.22861380497833
H         3.60016356123933    8.77823143308031   -1.53932998213795
C         2.53358830777484    7.00692178032351   -2.11802951045459
H         2.34171179188584    7.35777062646192   -3.12139292313650
C         2.07377047169899    5.76594210102337   -1.73064311969962
H         1.52784466134662    5.17712056825840   -2.45025026005166
C         2.30059062250080    5.26838555541576   -0.44264358533100
C         1.83474047784705    3.95795574153957   -0.01148538022207
C         1.14692009752747    3.08441594170719   -0.86152705656391
H         0.94334847771289    3.36953127657326   -1.88126502164157
C         0.71683330313090    1.84651415464860   -0.43232550501170
H         0.19102419220284    1.19784008074071   -1.11760725496385
C         0.95355664306848    1.42734248436117    0.87247932221934
H         0.61306066766197    0.45724565314812    1.20150468919216
C         1.62420336257039    2.26168611452062    1.73547507648852
H         1.82322897441062    1.97437144728632    2.75675895161122
C         2.07216170322002    3.51752868253328    1.30996143013968
C         2.75409448387075    4.37633905504871    2.25176120341361
C         7.23203035329248    4.31319443317152    6.28837577624737
H         7.28397638339054    3.32297116475943    6.73498918965737
H         7.71931919021117    5.01819578711241    6.95751155834478
H         7.74547131467138    4.30766566034441    5.33102379461825
C         5.78602692913701    4.71834474459280    6.08380919936709
C         4.97951546090898    4.76374450174102    7.23347243008052
H         5.46221911370433    4.54542110280688    8.17429393208318
C         3.60631180950482    4.99172588639366    7.26726638991189
C         2.92415196101602    4.91272573307784    8.61879663133895
H         1.86311791104251    5.11443959258824    8.49961120153283
H         3.35916007855764    5.64271029153157    9.29712079260843
H         3.05784714221124    3.92246516208241    9.04775763710632
C         3.97676494218639    9.73472802114790    5.77768449515233
H         3.30163038395326   10.13468814305463    6.53068746750310
H         4.11327570777297   10.48677389300230    5.00432950607965
H         4.93590408874345    9.50699452950433    6.23429538465422
C         3.39552660818455    8.47211190569632    5.17367208336335
C         2.15367644788102    8.59122273821904    4.53447799115060
H         1.71787347595513    9.57892783095703    4.50073667034642
C         1.40260571993091    7.55464828569734    3.97526008212246
C         0.06671311953923    7.92179187420367    3.36063682447225
H         0.22041105978810    8.60299665806562    2.52637269038299
H        -0.56361381509951    8.41467209214923    4.09671147577285
H        -0.42760521041152    7.02216413064041    3.00363692149068

