73
CSD_code = RISHOQ | q = 0 | S = 0 | Stoichiometry = C24H43N2O3Ta | MND = 7
Ta        2.06819685788831    0.92770339229721    2.59334487149383
O         0.29069625166524    1.14291944298854    1.58399682947933
O         2.98980395186323    2.15986465056853    1.64377067812013
O         1.47786156655187   -0.54351553550295    3.49876940416685
N         4.67987542092535   -0.33716306040522    2.98387876587088
N         3.03690824457505   -1.00218983358304    0.50677091867152
C         3.06851020044066    1.62649596329130    4.48359477994497
C         2.74203956615366    2.81804964629176    5.12039203758612
C         3.41697612635340    3.26920250714797    6.24593014399948
C         4.45593289488626    2.52111177257601    6.76799702830897
C         4.79956749674756    1.32583699485747    6.16083298230833
C         4.11458942846831    0.87927468367622    5.03740793690330
C         4.47172366842465   -0.45419363386564    4.42603786653912
C         5.93936455909742    0.34618188374325    2.75139994504603
C         4.63913756164124   -1.62739324329190    2.30653674761294
C         4.37399468122267   -1.50263989809724    0.80001926672511
C         2.03758850591634   -2.05385011387851    0.56347151955332
C         2.97003094020063   -0.35036733292129   -0.78860676754731
C         0.16745577299466    2.03487918410208    2.54274367294858
C        -0.13943670566385    3.51256367297780    2.21073933698608
C        -1.01246997343887    2.01621528555566    3.53978712589786
C        -1.39497170168169    3.43470812131973    3.09170802842084
C         3.54760989657860    3.23067241284150    0.96813837415407
C         4.98953000619158    2.92193957833528    0.51977992815475
C         3.59235979629744    4.45554700651297    1.90233101202186
C         2.69458743709205    3.55351400560584   -0.27329139080961
C         0.68473678521752   -1.45567527703160    4.17732469978064
C         0.25530869980421   -0.83984634837081    5.52375161207451
C         1.43070428867023   -2.77410655986986    4.47983427643444
C        -0.55982160863473   -1.77320037765907    3.32433386277017
H         1.92746734303780    3.41225081692589    4.72725276730226
H         3.13317526477437    4.20123969760576    6.71436240229557
H         4.99388759911892    2.86031796272533    7.64161578057301
H         5.60829532049899    0.73208215076208    6.56805393351027
H         5.36077132615140   -0.88122804282794    4.92330877738950
H         3.62779782989115   -1.12650671400947    4.58908085937786
H         6.09852711232297    0.50316653834589    1.68874164674557
H         6.79156035208767   -0.22759322295733    3.15215353298756
H         5.90858728354891    1.31443885464794    3.24771130706316
H         3.83556353187920   -2.21259473263959    2.75331371809584
H         5.58494567633120   -2.18061044676394    2.44886371000127
H         5.10038788054612   -0.81130362028250    0.36946126954458
H         4.54135108698570   -2.49111163235725    0.33603928112833
H         2.07160780270739   -2.54490011312169    1.53122103321443
H         2.19120638419622   -2.81141667168255   -0.22337077159445
H         1.05260533423805   -1.60661077646180    0.44343633672504
H         3.69638528936614    0.45795349244016   -0.83106315082487
H         1.97575402099137    0.07612296937610   -0.91096772631138
H         3.16611171406892   -1.04762901083491   -1.61963367144741
H         0.60526958795711    4.22004477671921    2.57102005318941
H        -0.32846161794590    3.69229460208744    1.15232507091709
H        -0.69374454676763    1.96837471937252    4.58038175084264
H        -1.76001731667962    1.24713402148086    3.34875195331203
H        -1.44149362633336    4.17164125192863    3.89226655125762
H        -2.32236680977048    3.47256959860131    2.52320853865289
H         5.35202092041866    3.71062640722264   -0.13536993467540
H         5.02054705626893    1.97840696993949   -0.01872503055789
H         5.64194964020937    2.85469650638286    1.38530590027428
H         4.15189459215573    5.26581733306751    1.44125900378906
H         4.06681437995999    4.17384844583529    2.83993210473095
H         2.58479729705121    4.79823834963032    2.11568143220933
H         3.00631458829978    4.49531186096596   -0.71863412828654
H         1.65137252343973    3.61931889333823    0.02092297998191
H         2.79062637705016    2.76068154144834   -1.01085329142481
H        -0.23369431311268   -1.58501212113130    6.14678893847357
H        -0.42811953908363   -0.01615459690816    5.34855753979313
H         1.13308816149757   -0.45554081703786    6.04041345986514
H         0.73279909814338   -3.49769731326959    4.89444642935871
H         2.22691133985453   -2.61108502562169    5.20356621441707
H         1.85932622876036   -3.19503325327155    3.57284693053668
H        -1.36276643117189   -2.16597311078674    3.94308902918950
H        -0.31852944289754   -2.50143550598161    2.55357329251371
H        -0.88461691649656   -0.85728002312511    2.83723868222405

