68
CSD_code = RISJOS | q = 0 | S = 0 | Stoichiometry = C29H33MnO5 | MND = 8
Mn        0.25917912614593    6.71034133944519   36.58362072642161
O         1.09140840717867    4.74200321734682   39.54627545793063
O         3.58392619456630    3.01053613299685   29.44782070682714
O         1.50294510042802    8.41125715238763   38.62708648593819
O        -2.61167772967846    7.15712630930935   37.00832357435313
O         0.32618084636408    8.61409638592188   34.35215968893295
C         2.15593901925789    5.82168857487320   36.30989656951854
C         2.42274068595388    5.01731735141432   37.57594496569243
C         1.06264672202883    4.83400264342043   38.20617082706819
C        -0.02745635383239    4.63095113641501   37.39671973934522
C         0.07177729734370    4.69599065261991   35.94612051327785
C        -0.94232051867362    3.91643556176828   35.14683110753905
C        -0.77209105451497    4.15302322293386   33.65100649530672
C         0.70220335582427    3.98004507718281   33.29274615091734
C         1.50150898790741    5.15663731559018   33.88269075477596
C         1.24989908570830    5.22291592789536   35.38183882143834
C         3.00019671193909    5.02876178864574   33.56683877569265
C         3.26957784132618    4.84252529196070   32.07026541425533
C         2.45494181757820    3.68289959492687   31.50253501166306
C         0.96974076953275    3.94707191056657   31.79589688299107
C         0.23742938754321    2.92502905952312   30.92468542799392
C         1.11608903852506    2.81607256617669   29.66351173859465
C         2.41675794442179    3.60532661791472   29.96356572827652
C         2.97980752811598    2.35143530561724   32.04451694691272
C         3.71937700020577    3.13758385478892   28.05706971286744
C        -0.13100175230715    4.72157322634089   40.25008578097142
C         3.12184978857743    3.72827999713066   37.19100369501076
C         2.43128566947733    2.55529104071623   36.91716404502881
C         3.09928385830916    1.44125243396263   36.43829976642305
C         4.46521644250066    1.48566801314174   36.22258988540880
C         5.16398614940702    2.64783692224195   36.50319946739117
C         4.49647560857184    3.75944480995149   36.98301275987227
C         0.98439737606711    7.77268685540675   37.82500622571485
C        -1.48175442905558    7.00726694908506   36.83877501278656
C         0.28675487891730    7.89548223172194   35.25320351592175
H         3.05215901009031    6.28342677083213   35.90191655922507
H         3.06280825574801    5.57816011736452   38.26416712777044
H        -0.96763967156065    4.28140188529977   37.81812667783828
H        -1.95759792391932    4.17238651458355   35.46341163401910
H        -0.79621692193104    2.84879514527179   35.35941214674607
H        -1.10136620040386    5.16310626441485   33.39394002853293
H        -1.38721593431870    3.44299824034437   33.09685308794459
H         1.05343546581149    3.04556725384772   33.74345294145672
H         1.14105706543970    6.07445158578732   33.39888319244169
H         3.41961234582783    4.19484276834024   34.13409531589087
H         3.51700157228547    5.93572727635690   33.88518740496620
H         4.33475349093028    4.66763159922748   31.91170384515039
H         2.99899711135766    5.76276879131984   31.54574102619010
H         0.73304694001943    4.94195107077185   31.39711049587808
H        -0.77193897124359    3.25305035329416   30.67911178681198
H         0.16202423766420    1.96575007416061   31.43698971981020
H         0.60676936561647    3.22368657948093   28.79079444696537
H         1.37521568734491    1.77930191563689   29.44886954903836
H         2.32731674841495    4.62628998796365   29.55475227919113
H         3.97442115494635    2.18607736561045   31.63943855055523
H         2.35056641795043    1.52415911650778   31.73356933281730
H         3.04507558150888    2.34979010701434   33.12846963687377
H         4.68322140150150    2.70192545535431   27.79975841434193
H         3.70330424392662    4.19201208690186   27.75212602695686
H         2.92695301957181    2.60513576055378   27.51873117695425
H         0.12947665529033    4.80503372465308   41.30331497921201
H        -0.67689421586843    3.78768759703023   40.08431315248591
H        -0.75919821688192    5.57089206221810   39.95568443722374
H         1.36450879755955    2.50049721055494   37.08263127045138
H         2.54780930768805    0.53596408928575   36.22834030573006
H         4.98254241130495    0.61891886653423   35.83946143020381
H         6.23125536599721    2.68997111104986   36.34360506616002
H         5.04491560068276    4.66658478109451   37.19435857509711

