68
CSD_code = RISJAE | q = 0 | S = 0 | Stoichiometry = C29H33MnO5 | MND = 8
Mn        7.12654531819400    5.94075183323643   18.07917645760272
O         6.48014687350677    2.86638309320256   18.90307384468568
O         8.25359995907657   13.57673685158618   20.63507688374911
O         6.90304346554749    4.21590447388789   15.71137173653291
O         9.92140437968919    6.72041911654280   17.66008383176538
O         5.83610240682512    8.15594468617481   16.64644392103476
C         8.09994113400862    5.73249327179765   20.68792813726778
C         8.02603350937546    4.62635482498840   19.65453348245702
C         6.76325667286096    4.12730519976471   19.31566289347040
C         5.65939423619223    5.03187837724749   19.33140804213370
C         5.82179541348509    6.34167482482984   19.86902232932502
C         4.58284991323514    7.19912434493009   19.99736883515075
C         4.83320293833365    8.43485124331091   20.85407752523919
C         6.11915270495709    9.10564183384483   20.38329982395010
C         7.30526217849613    8.19727081902642   20.73836253676058
C         7.09891830083024    6.79053818543876   20.21715469823117
C         8.61533302002730    8.82573192448812   20.24290482951005
C         8.82847052131329   10.24312125457387   20.78345718998438
C         7.63324628591774   11.14095007625519   20.45914068263396
C         6.37135280203424   10.46287232577822   21.02377041825335
C         5.29673176654257   11.54322666378217   20.91859353194407
C         6.06200749796116   12.83727805260994   21.24246504948850
C         7.56850358164985   12.49332984297584   21.21870622044533
C         7.57287636725406   11.42987064490190   18.95830304374971
C         9.62700593081765   13.64271761518356   20.91073804005467
C         7.54650207383980    1.98244222208373   18.63739352583287
C         7.80870885750089    5.31359739769840   22.11837897178231
C         8.50296720816310    5.93439648858635   23.15202391939556
C         8.23674360831840    5.62543764365264   24.47322206725397
C         7.27110710085082    4.68332886134336   24.78378489944335
C         6.57878560454695    4.05477323709642   23.76406376209542
C         6.84353689859008    4.36875229726176   22.44217237579215
C         8.81151649290570    6.45862864678766   17.80873794394053
C         6.99242968796093    4.90285632102257   16.62858044381109
C         6.34643769954748    7.28050635921152   17.19707438569676
H         9.11072519818038    6.15199757063361   20.67521574550589
H         8.87239660445884    3.94371282214979   19.64699470899578
H         4.66540938113546    4.62449205682592   19.17618508440134
H         3.79552051751847    6.58283554301659   20.44273751574615
H         4.22722264841528    7.50672764935451   19.00928665764748
H         4.92985811739669    8.15056205150220   21.90549784140785
H         3.98743825431867    9.11652443126114   20.76408672362430
H         6.06257809086252    9.21849113595050   19.29647402675170
H         7.36316061424711    8.12740182643575   21.83626900759539
H         8.60419178975526    8.84037655579515   19.15019264190912
H         9.46598662543418    8.21507683700339   20.55086729778103
H         9.74697759862486   10.64315752035001   20.35045091619640
H         8.96278988499063   10.19763897421433   21.86860221750088
H         6.55218627922352   10.29306733166650   22.09405369236955
H         4.48038373028700   11.37655564962545   21.62049957793853
H         4.87742942249479   11.56899581709374   19.91338373657830
H         5.77967885647460   13.23640569615722   22.21521132171000
H         5.88434709780527   13.61389738614664   20.50080872384920
H         7.94185155958043   12.34286126919096   22.24594139627786
H         7.49260659326702   10.52261725794884   18.36776890004549
H         6.73344431498790   12.07451933349380   18.72145081555828
H         8.47938010375715   11.95007921836384   18.65806072093816
H         9.96771726686398   14.60677764770962   20.53596880876209
H         9.81931872016435   13.58449173655162   21.98971380786429
H        10.19042103135145   12.84649078602767   20.41243235195957
H         7.08216312199113    1.06077555467015   18.29201348028261
H         8.20044164878538    2.37789751668527   17.85312518096666
H         8.13429159180642    1.77907979439116   19.53868830484992
H         9.26514152969751    6.66528278338246   22.91823798072096
H         8.78726749424098    6.11811351733975   25.26141784620433
H         7.06242940821547    4.43749224469111   25.81436028850514
H         5.82690794752012    3.31441734904291   23.99611980551758
H         6.29212454579483    3.86099628022390   21.66382659357106

