131
CSD_code = RISKIQ | q = 0 | S = 0 | Stoichiometry = C52H73Cl2N2PRu | MND = 5
C         7.65216273720251    3.08647046819708   11.95358252271367
C         7.23745433006533    4.22357672391898   12.72681575600623
H         6.67840969934248    5.04289512732266   12.31804211536696
C         7.64536041139489    4.13492733930702   14.02129050435998
C         8.35068519359863    2.85999685922169   14.16745933606938
C         8.97203764655947    2.26512584804656   15.24566133253089
H         9.00837443747693    2.73950903783787   16.21529674913137
C         9.57471863635780    1.01893541735459   15.08738731701463
H        10.06288535835394    0.55496296722568   15.93336996177104
C         9.55512848797784    0.38172102105758   13.86402415260438
H        10.02534839385050   -0.58420230779551   13.75239547334584
C         8.93583392754925    0.97082147767358   12.76577544596698
H         8.94318340462511    0.46050082710725   11.81821681443036
C         8.33913308275969    2.20991223141259   12.90247256818428
C         7.45629351006869    5.17598769481421   15.09082830992269
C         6.66982572188493    6.37911396234431   14.55894415067929
H         7.20406363382983    6.86537694274260   13.74706530028297
H         6.52613089317097    7.10545633129582   15.35668316047938
H         5.69243926141407    6.07328175532430   14.19516316783929
C         6.67839031735645    4.58550173140908   16.27498247927693
H         5.67040902049408    4.32673662074339   15.95991670928807
H         6.60984617741289    5.31791847703443   17.07733206212372
H         7.15181508191018    3.68944881596207   16.66211113699349
C         8.83461039715272    5.67398736557967   15.55332302042132
H         9.44101764095910    4.86579236601924   15.95022737096958
H         8.71867572548748    6.43156114042740   16.32598764778944
H         9.36756892093179    6.11958026754498   14.71515049514213
C         5.84665556344998    1.95153682317690    9.66699720736688
C         3.87100543462928    1.37038902207289    8.56794021081000
H         3.15378526455369    2.12124469030356    8.22585345429034
H         3.77031195700159    0.48374992589130    7.93269688403982
C         3.72533357838450    1.06453357112577   10.05756435788948
H         2.92178004140860    1.63968112170643   10.52483859894599
H         3.55336221174067    0.00306511370709   10.26533197987986
C         5.79450733504351    2.09222154223946    7.18471869996730
C         6.57245052145722    1.06693416591362    6.63259486822494
C         7.06512066079666    1.22313309270543    5.34425084790358
H         7.66782994978055    0.43259227971153    4.91996113504881
C         6.79135731789112    2.35420711655045    4.59211308414244
C         5.98121971754403    3.33458268403684    5.14511257615132
H         5.73375083767513    4.20814395770866    4.55831005806682
C         5.45400778461221    3.21605466702190    6.42299297536846
C         6.86921159055994   -0.19010020102979    7.38695450152231
H         7.15457724897102   -0.98385221298981    6.70102608565468
H         6.01342498570353   -0.52107698348826    7.97183138739832
H         7.70134989471014   -0.02208133843464    8.07308450184230
C         7.32295188124777    2.51260294531798    3.19924674944824
H         7.88086055287317    3.44379140606892    3.10716924044814
H         6.50130723056395    2.54713975307272    2.48435037469327
H         7.97751443571982    1.68589212771582    2.93424011593537
C         4.49821336049635    4.25772069383577    6.91586847147935
H         4.60175175243556    4.42867713533571    7.98462130807773
H         3.47210546252470    3.94493459192036    6.71407460592272
H         4.66616509891782    5.19959703944449    6.39870067085613
C         5.31333499100217    1.20080390946031   11.95792154627290
C         4.84110750006593    2.04060625112534   12.96583371436211
C         5.09584073916587    1.69367572961298   14.28560678075207
H         4.73662761263863    2.34022101689810   15.07295612125533
C         5.78793256599297    0.54124845733150   14.61605078572135
C         6.22222497716578   -0.29117202308631   13.59303226512600
H         6.75267201019164   -1.19913314700018   13.84085273692742
C         5.99281477083067    0.01721844999851   12.26322803801834
C         4.05609247402807    3.27488215238927   12.64770008501251
H         3.00243482587472    3.02929692582630   12.50534779974974
H         4.42455844309194    3.74884902871678   11.74067786164306
H         4.12444962407642    3.98705311955348   13.46565396369504
C         6.07093938593098    0.18609487942386   16.04305267050248
H         7.14574205319648    0.20868771080423   16.21974954737078
H         5.71662035823485   -0.81927951877436   16.26541264837011
H         5.59142222160142    0.88582619819452   16.72267167417048
C         6.46682545836227   -0.89206059310630   11.17222541296336
H         5.63032726354793   -1.26864924666653   10.58332295182973
H         7.00249445286672   -1.74036146631710   11.58874303523570
H         7.13651823525324   -0.35334154029420   10.50342667405015
C         8.96603309851134    6.52319355549657    9.60113165560176
H         9.96449110813510    6.96407205048742    9.47356463710771
C         8.12499610142453    6.87609701457225    8.37417082651596
H         7.13338754338649    6.43075786067084    8.47177163913848
H         8.58693541738687    6.49193521322231    7.46361319590908
C         7.99062346266046    8.39260644309410    8.24733091725152
H         8.98094447629319    8.83366115656945    8.09751712976315
H         7.38367903903547    8.63157483571710    7.37110411785712
C         7.35552257771454    8.98928682944742    9.49787343402989
H         6.34758064713213    8.58673641422198    9.61509838872066
H         7.27969960725810   10.07445414358366    9.39852990086454
C         8.18279265627900    8.62741863558425   10.72621473699615
H         7.71361596481404    9.03307245402589   11.62535508650781
H         9.18025790590140    9.06897423975965   10.64116916175816
C         8.29546027413590    7.11074991610954   10.84410265779858
H         8.84877306887389    6.84435520448883   11.74721784452869
H         7.29211462446762    6.69146941082523   10.92216128217370
C        10.19833335832297    4.16170934502025    8.31486522690789
H        10.69897926699065    3.24137988915607    8.65105892510277
C        11.25783375758240    5.10063779385851    7.74475457332540
H        10.79100045755015    5.99619986600473    7.32977540507191
H        11.95477098058089    5.41483980024183    8.52292205506877
C        12.02604265129145    4.37651113698875    6.63892078973566
H        12.77825818098576    5.04521519892905    6.21334559655152
H        12.54645670779459    3.51623183392860    7.06685166576720
C        11.07812374772777    3.89557561110346    5.54370194922461
H        11.64044751913447    3.35387849707680    4.78022500909122
H        10.61233789306377    4.76045304362189    5.06339175721526
C         9.98973379761282    2.99581434364392    6.12374376607965
H         9.30700028338572    2.68079563025138    5.33463963657373
H        10.43969089719654    2.09966753778209    6.55666350462607
C         9.22297463563733    3.74379958640905    7.20787644157894
H         8.42812157855410    3.09728511417995    7.62225865071236
H         8.73195234083133    4.61182722241214    6.76327581778477
C        10.48983620250539    4.67095297379143   11.24083159864792
H         9.83396122733877    4.72375639535016   12.12366266661519
C        11.51832312814715    5.79777592382911   11.35733514240756
H        11.05006352260407    6.78079673097293   11.30802028067848
H        12.25076241693404    5.72834133789526   10.55109802692017
C        12.24849350471868    5.67321932145146   12.69585221431891
H        11.52721511666245    5.77787365083524   13.50997640346299
H        12.97794472519847    6.48153597057358   12.78945072526619
C        12.94757265469340    4.32343539417802   12.81761797798344
H        13.72201135332436    4.24642819982841   12.05028629654490
H        13.43472221436438    4.24520814971442   13.79178804454959
C        11.94314370846119    3.18970034622965   12.63897245301451
H        11.21002654016082    3.21317733933611   13.44812013352516
H        12.45325328137211    2.22563636545924   12.68171630995921
C        11.22320221947890    3.33007224046793   11.30166619192918
H        11.96095417005569    3.27445816504902   10.49748802071585
H        10.51847408484166    2.50633016859823   11.18014938980595
Cl        8.96435434742253    1.31404726941539    9.57828610790680
Cl        5.84826910230471    4.80344464202728    9.93629047141470
N         5.23036791525076    1.90144356219846    8.48038196947688
N         5.01717353847398    1.48190377121341   10.59591510599695
P         9.25244493693063    4.69180600539055    9.82820339932844
Ru        7.49327077810721    3.09824171385177   10.02277736147423

