25
CSD_code = RISKEK | q = 0 | S = 0 | Stoichiometry = C10H8Br2N2S2Zn | MND = 4
Br        4.98796473527099    4.88218581105335    3.60620830931953
Br        1.72558406658118    3.33104025392557    1.12982983524137
Zn        3.37406894941470    3.36160688895946    2.81281699322864
S         3.82625483245127    1.03583978472027    5.18575266954078
N         2.21271595549614    3.09831376722303    4.64057456900393
C         2.44177561898231    2.57657683331450    6.95885663164858
H         2.90670001098233    1.95755786589561    7.70872816520193
C         1.33774961590764    4.05026159056278    4.95388907444045
H         0.92103506208266    4.60081466046246    4.12077500255296
C         2.72533242799624    2.36241507352455    5.61677463853551
C         1.56211320350831    3.59328547555846    7.28247329841402
H         1.32249390902126    3.79725816418580    8.31461377024249
C         0.98050536140859    4.33032623339874    6.25882922654900
H         0.27192713080583    5.11479478542457    6.46693567064212
S         2.92218547839635    0.15897231999452    3.57573094364538
N         4.58968426758221    1.67796174760647    2.14419583220147
C         5.49603936939107    1.89883733934995    1.19576173201004
H         5.92576986477777    2.89169073102378    1.17570586881108
C         4.06110789439851    0.46660562760708    2.24645970800576
C         5.86934313512037    0.92819866249701    0.28527927429588
H         6.60277599567330    1.15271489458084   -0.47232438078129
C         5.26943192804291   -0.32223248760131    0.35990490835057
H         5.51945036700076   -1.09756136327685   -0.34797176114141
C         4.35736905454329   -0.56850225518360    1.37046075510283
H         3.87732176516077   -1.52576240479693    1.49083926493739

