53
CSD_code = RISLAJ | q = 0 | S = 0 | Stoichiometry = C24H18ClN4O3ReS2 | MND = 6
C         1.70546684662002   -0.12050253841595   13.16557015554332
C         4.16551613002022    1.13811655029883   13.12305994167433
C         4.12972707741550   -1.67026988195173   13.42217679649802
C         6.12106532379120    0.13408852338856   10.60175184799327
H         6.55371523945689    0.63178185592235   11.45238863892959
C         6.66336646489691    0.07336545913143    9.35988230908359
H         7.58337260228210    0.49374181460240    9.00887292776426
C         4.53606100501923   -1.03927324394161    9.60275029933845
C         3.30883817665572   -1.79491876405977    9.52726975670747
C         2.85006028943950   -2.33045209811191    8.33228059807815
H         3.40721829098452   -2.14480323596651    7.42712139351675
C         1.65082723550305   -3.04375549786194    8.30866807208429
C         1.01481380569377   -3.22338557458686    9.53946368413287
H         0.11217980806501   -3.81049838035792    9.60768230776289
C         1.54695114609231   -2.67461086104822   10.70067905870629
C         0.91130861002674   -2.92614425682912   11.97758891624044
C         0.68493176793251   -3.07048926706226   14.15436576164112
H         1.05953635449504   -2.95994234515258   15.15499907045603
C        -0.55459685591531   -3.51518278212685   13.80847296902471
H        -1.35986460643580   -3.82716942112077   14.44171950715894
C         1.09721868974345   -3.57515788525158    7.07276321198288
C        -0.28417174335662   -3.69279765921932    6.89381918194927
H        -0.95353210362413   -3.36588700960677    7.67565162576114
C        -0.81728451315215   -4.16634195943409    5.71975422788557
H        -1.88917099500963   -4.21109909494112    5.61391220651610
C         0.01050640600706   -4.57100032758417    4.65775348321346
C         1.40004655487965   -4.47012682769588    4.84724686135080
H         2.07400456434536   -4.79408475271995    4.07048712869704
C         1.92197439942534   -3.97472775682252    6.01752953021879
H         2.99539519949880   -3.93169324128514    6.13098728392276
C        -1.92236073834581   -5.27445650087602    3.28026319037953
H        -2.46322286486152   -4.32123476406104    3.20306607203580
H        -2.35378616371940   -5.85342003584800    4.10156315981170
C        -1.97246859527329   -6.03397886432115    1.95658832423723
H        -1.84037337997388   -7.10206465707532    2.13273165308684
H        -2.90990755443894   -5.88040815523991    1.42706080865592
C        -0.76687146922253   -5.47504533491852    1.20668504655867
H        -1.00912273001508   -4.49851718034020    0.78598548941143
H        -0.42663778553728   -6.12618454408339    0.40475775497368
C         0.27417029601539   -5.32424325595119    2.31386614190732
H         0.84474348703347   -6.25439554077367    2.44185925567385
H         0.97613484217403   -4.51161317944557    2.10710696986862
N         4.92981197967056   -0.49526849591558   10.73028134473546
N         2.66405342223930   -1.93551186315342   10.69932929692618
N         1.48244343394764   -2.74676989637926   13.12167081169433
N        -0.50950328292250   -5.04246969026633    3.49889392560245
O         0.67678456248094    0.11166899069425   13.60956589078257
O         4.65349306111787    2.06453405205774   13.59191659937615
O         4.56707434349344   -2.45938590615765   14.13157003208359
S         5.64326956803329   -0.80945261361888    8.29364072574402
S        -0.73232165003012   -3.53273387561171   12.10414131905941
Cl        2.36223399077583    0.98790621504587   10.51549650242505
Re        3.37518205656682   -0.36973444395157   12.19229093110849

