84
CSD_code = RISLEM | q = 1 | S = 0 | Stoichiometry = C41H38CuN2P2(1+) | MND = 4
Cu        4.88171764697012    4.33259373702832    4.53401446375902
P         3.90309682618046    6.36349571030023    4.79768291435242
P         3.86324527346800    3.02564526776815    6.09707152821348
N         4.92662799050701    3.52599854762381    2.66036064631960
N         6.90957726218891    4.19663183585142    4.37281017098696
C         3.10705674260199    6.46274900619057    6.46312801292380
C         2.23708895203358    5.24291450365297    6.78752864759692
C         3.01384781083433    4.05968242049089    7.37388409094681
C         2.53837106474052    3.49892489440243    2.30396322948371
C         3.93118794343631    3.21257668090057    1.85638119202853
C         4.16823442169367    2.62443134174675    0.60125103088760
C         5.45359759206368    2.37029224595237    0.19713115193839
C         6.52395180680843    2.70302600294360    1.04763805188859
C         6.19733000962014    3.28751859220607    2.28861202761113
C         7.24680296020151    3.64464780415297    3.19352716933475
C         8.58961717450116    3.41022114365125    2.83128423395074
C         9.57787153354694    3.78312655893258    3.76069335666961
C         9.20494945000857    4.34585752201425    4.95515223346430
C         7.84293733439101    4.54253749508594    5.23898144519281
C         7.40869277709477    5.14809129059189    6.53123903918625
C         7.88858402005406    2.47869399855231    0.71354655746381
C         8.88243233592366    2.81921754824805    1.57082198399458
C         4.90023720540639    7.88959398543323    4.77749181102034
C         4.34643293690492    9.13724226710564    5.04824647674389
C         5.14352585889245   10.26550584512895    5.00711332394903
C         6.48896718624046   10.15940932687456    4.68900775734320
C         7.03876821423109    8.92185194532237    4.39974179664907
C         6.24503981498824    7.78949581621131    4.44074519915914
C         2.59731011373227    6.83975327683201    3.62153406544481
C         3.02771903382249    6.94376950617804    2.29883222744908
C         2.14110438101575    7.29004329444727    1.29927664323206
C         0.80932699373001    7.52170586254764    1.61012814792615
C         0.37422533588712    7.40498412776278    2.91893126580814
C         1.26096175604498    7.06321954763048    3.92677791371614
C         2.57470025598252    1.91579703821432    5.44906353028038
C         1.21149738216789    2.01361404089449    5.69652560935206
C         0.33917074658682    1.11506350323987    5.10443652233224
C         0.81561098724939    0.12412008086033    4.26349302127910
C         2.17522855550433    0.02881906842047    4.00530011475498
C         3.04805681437026    0.92438345744520    4.58936662468264
C         4.77461886645248    1.85166127334508    7.15376177328145
C         4.12867811974860    1.06978618489116    8.10702939273317
C         4.85929370718605    0.19007660205937    8.88293326104134
C         6.23050475839666    0.07827046337583    8.70929176422809
C         6.87358027608464    0.84135771577366    7.74933355876589
C         6.14643467158289    1.72459325026863    6.97123282838840
H         3.91471474152510    6.56221677804067    7.19568607270936
H         2.51074250634950    7.37917276278147    6.50971053298117
H         1.48012644414482    5.54591878715361    7.51650508007574
H         1.71449468321803    4.92060408341920    5.88090004042489
H         3.79191045081921    4.41739811261115    8.05645919544350
H         2.34425582847972    3.41446081854162    7.95135318775230
H         2.05619144367740    4.19141918973772    1.61554093854917
H         2.54900679760478    3.93971739869376    3.29989234490738
H         1.95260320529426    2.58139251101910    2.32701516404916
H         3.32865563969477    2.38065204622131   -0.03043540322423
H         5.65696279140419    1.91970011616092   -0.76292352874586
H        10.61885003259991    3.62185027052486    3.52353939382681
H         9.94227047797446    4.64087703321354    5.68500081237358
H         7.76583507271326    4.55090905109452    7.36882777082780
H         7.81909731930219    6.15141437811750    6.63544334207644
H         6.31998503903374    5.20107451949975    6.56492020126254
H         8.11216490611863    2.02990425701031   -0.24246687772310
H         9.91725501159853    2.64874887257024    1.31520898565946
H         3.29391143246264    9.22652572854163    5.27686921626456
H         4.71458146476434   11.23341134510329    5.21832934593528
H         7.10573149648595   11.04449453235824    4.65797918192047
H         8.08346224723341    8.84094040995509    4.13783273376768
H         6.65525819149230    6.81676944729372    4.20402968513673
H         4.06977542654411    6.75227864746241    2.07183538328169
H         2.48298382064260    7.37972293706920    0.27887540792791
H         0.11229815452035    7.79245517330538    0.83200470864289
H        -0.66285585169566    7.58435418848248    3.16005282248899
H         0.90042953576231    6.97905711887057    4.94100457444209
H         0.81905558373847    2.77840766318937    6.34989573234718
H        -0.71929565664121    1.18906304579019    5.30452516162116
H         0.12937548849080   -0.57396668314776    3.80908756496228
H         2.54948434375659   -0.74299506987926    3.34926268269438
H         4.11199662887917    0.86646513268190    4.39261784114432
H         3.05731574051738    1.14111096802098    8.23125277998897
H         4.35879582546696   -0.41518038166472    9.62362217303486
H         6.79534070941739   -0.61081500318177    9.31827592429155
H         7.93960605464230    0.74474305007235    7.60504500602508
H         6.63191407077758    2.31783513416559    6.20832701310095

