47
CSD_code = RISLEN | q = 0 | S = 0 | Stoichiometry = C24H15ClN3O3Re | MND = 6
Re        0.48907172616373    3.70183532726088   12.62151178097206
Cl       -1.76454886953617    3.83208905866292   13.41526686519343
O         0.08808419167904    0.63646646649051   12.67788359030043
O         1.55130997517618    3.62092800184985   15.52002111795239
O         3.28121935684857    3.68354016532315   11.29646050254905
N         0.27967138287926    5.81725976608561   12.57466695202007
N        -0.60125018818480    4.11206682108794   10.75538957388886
N         1.05767430022648    2.00663097352353    9.93265183630286
C         0.30141596480440    1.76209523344141   12.64215032107617
C         1.19926515096026    3.61928127079477   14.42858574943222
C         2.24538010799002    3.68269733376383   11.78951590299826
C         0.82959446868324    6.65740562383500   13.44802010900821
H         1.59913071066142    6.24659168087071   14.08912908851962
C         0.46142013202009    7.98445445702602   13.56021894485091
H         0.93366607916984    8.61613199045977   14.29489258816187
C        -0.52654037587532    8.47144244341158   12.71724318476951
H        -0.85008219633742    9.49938018199474   12.77583445352288
C        -1.08871406887312    7.61148953600276   11.79451614857164
H        -1.84965832033290    7.97358939557791   11.12336807805978
C        -0.67234828924956    6.28123816166996   11.74505116194674
C        -1.20262810138320    5.31387084129594   10.77339849437929
C        -2.24856048671279    5.62335862961644    9.91071175676595
H        -2.75151916508594    6.57370318399312    9.97545588945722
C        -2.69436770140054    4.68128133669648    8.99005704320850
C        -2.02785452278661    3.46029327418919    8.95654407224391
H        -2.29339699829103    2.71291336593536    8.22564556493084
C        -0.99183708896275    3.21344863397178    9.84888788437620
C        -0.26183477347166    1.93208069259501    9.77264970060454
C        -0.91973591403390    0.72728477744880    9.53748001663463
H        -1.99447965910844    0.69389879744754    9.44750573145759
C        -0.16558656182363   -0.43200080514832    9.46998205509809
H        -0.64570161549748   -1.38578004670295    9.30724199737644
C         1.20942920916203   -0.34831684651815    9.61976447864459
H         1.82960067183284   -1.22899979784379    9.56967558519288
C         1.76996240093516    0.89980305517490    9.84983627581541
H         2.83603699169579    1.02557733645295    9.98059249391701
C        -3.81341163330217    4.96810148230244    8.08532710008153
C        -4.76512548424103    3.98852256009250    7.81061936147203
H        -4.68824424789109    3.02160668551762    8.28577518526706
C        -5.82347986238070    4.25905027657864    6.96381424188574
H        -6.56044547324956    3.49505691317962    6.76551368476617
C        -5.94036354582379    5.50581153081635    6.37178596245335
H        -6.76545566793435    5.71467833739213    5.70760250676393
C        -4.99575515519117    6.48413415592137    6.63447422626661
H        -5.08058559874505    7.45613693467815    6.17142199686627
C        -3.94171672023348    6.22060116012249    7.48901405546684
H        -3.19720453492703    6.98136964562313    7.67504468852752

