81
CSD_code = RISLAI | q = 1 | S = 0 | Stoichiometry = C40H36CuN2P2(1+) | MND = 4
Cu       18.01816563535189    0.16407871867716   24.64462971916623
P        17.46920809547931    2.29194561746029   23.92520106126291
P        15.88436254500617   -0.17461048957818   25.47658075631495
N        19.39920188519887   -0.55844866228801   25.96559128409240
N        19.14002958026041   -0.82938836357406   23.26365307426856
C        15.62794386934442    2.20102020541201   24.08107164571651
C        15.25014655682158    1.56190613196666   25.41317393372406
C        18.43812074126361    0.36601368346345   27.98422852795211
C        19.46166866245519   -0.45771975850207   27.27901246891659
C        20.46788239484540   -1.10730318532684   28.01501011513168
C        21.41218848067712   -1.85572226106705   27.36263519439119
C        21.34914501772788   -1.97932278887624   25.96267135867809
C        20.29675502573961   -1.31100419486037   25.30101403994406
C        20.17895148035852   -1.42680776021939   23.87808986473149
C        21.14563967117844   -2.16675049526019   23.16396985728433
C        21.00344274291197   -2.23355316964011   21.76595555630254
C        19.95337033990338   -1.59019050357873   21.16519723800892
C        19.02186982928612   -0.89014296080004   21.95146444602160
C        17.87169845271820   -0.19751750495171   21.30274384873300
C        22.29423758610807   -2.73135059783486   25.21216106189257
C        22.20232926992221   -2.81278357730583   23.86261681270268
C        17.70627053093878    3.22169751365908   22.37756476189743
C        16.78281807786534    3.24313808040789   21.33785389204806
C        17.07269368847249    3.93327960475424   20.17338112366321
C        18.28341143398305    4.59013215393393   20.03094050225846
C        19.21576077961918    4.55263446763903   21.05651131798001
C        18.93263008399630    3.86614937045136   22.22093583777820
C        17.88387393586628    3.57567174597777   25.14973135377148
C        17.26386469310153    4.82179408465513   25.16340447967617
C        17.62855221706647    5.75910597892907   26.11146644720986
C        18.61486488807181    5.46527778015863   27.04119540245650
C        19.24726022910001    4.23334201598724   27.01850635707778
C        18.88420358717104    3.29073435644002   26.07294888646144
C        15.21068752325049   -0.80943598842070   27.04443037950847
C        14.82826375629174   -0.00707187847867   28.11367873438157
C        14.37458017839443   -0.59132101592370   29.28405403511607
C        14.31382507570105   -1.96960069005298   29.40212472447824
C        14.71446411392410   -2.77340736438857   28.34555380986162
C        15.16752630162922   -2.19695354211670   27.17541317658895
C        14.78764056960943   -1.01186498425025   24.28658702435262
C        13.40034504981993   -0.94200048246845   24.37626463181186
C        12.61883539828773   -1.60683988887701   23.45024112219237
C        13.21198953418440   -2.34836958673240   22.43937825503017
C        14.59187628246835   -2.43504697402826   22.35817991898924
C        15.37868690100470   -1.77032040725299   23.28202920903374
H        15.19631751367515    3.20306688007310   23.99159706917118
H        15.24706220434052    1.58235320350861   23.26075916361036
H        15.71277411328236    2.12468268816813   26.23179240996979
H        14.16449393707464    1.56765467473355   25.55401307582764
H        18.91652089971990    1.15062661422610   28.56785688441798
H        17.75598191076940    0.81843812293721   27.26595694691846
H        17.86768337007836   -0.25981331402991   28.66937673982991
H        20.48710625654722   -0.99873487287149   29.08792258465908
H        22.20291874093184   -2.35211318487405   27.90501012117997
H        21.72318552315669   -2.78991450464948   21.18438303055732
H        19.82172518323163   -1.61835844253339   20.09506499018446
H        17.28976150599287   -0.89931450704246   20.70811048915139
H        18.23805764591011    0.58197891794619   20.63602658045706
H        17.22883406428450    0.25539805978942   22.05608604262279
H        23.08923834355489   -3.22959710475715   25.74584586476832
H        22.92451404654581   -3.37413710884234   23.28955351592831
H        15.83578937142351    2.73182045220210   21.42959016717466
H        16.34721367336950    3.95822204617086   19.37394903000453
H        18.50161958180065    5.12900044530036   19.12184785947941
H        20.16259175310569    5.05954400220964   20.94651310280831
H        19.65508065977362    3.83206716370958   23.02639126331521
H        16.51019704313097    5.06202737009579   24.42629813830342
H        17.14766167476857    6.72560021675209   26.12308860325268
H        18.89618025936971    6.20275605837585   27.77724054871911
H        20.02687206419957    4.01199106540638   27.73243312272724
H        19.37723571562355    2.32728273035445   26.02992343758232
H        14.87413298799518    1.06962915682510   28.04127139922348
H        14.06594775974760    0.03531309262518   30.10749885165616
H        13.95551623367736   -2.41800089601451   30.31602732512565
H        14.67204734101641   -3.84859010999871   28.43621849331922
H        15.48238651672765   -2.81578506202326   26.34450832004059
H        12.93538219037196   -0.38214576351062   25.17596512200931
H        11.54274146906674   -1.55324598260466   23.51889972375308
H        12.59558615887387   -2.86672368174145   21.72093419748760
H        15.05220794832312   -3.02607662182459   21.58022779372542
H        16.45895164619584   -1.83867423733315   23.24457074216428

