137
CSD_code = RISLUB | q = 1 | S = 0 | Stoichiometry = C72H60As4Cu(1+) | MND = 4
As        5.62776714884441    2.40930235434907    3.45611738257249
As        7.20130428345378    4.15775186724641    6.79232733580823
Cu        7.20116869464424    4.15771499464110    4.29404685496918
C         6.08304267748793    0.54067092669439    3.77153176222141
C         7.42468423841332    0.18785784713534    3.67904061980238
C         7.83351918851894   -1.10984980079766    3.92302214844309
C         6.89603663599584   -2.07069992194600    4.26684846244610
C         5.55693116255956   -1.72876085651636    4.36534276039280
C         5.15013935595001   -0.42768990443448    4.12228434825355
C         5.26252475480281    2.35905249211900    1.54256100620615
C         5.12267459718843    1.18182353614051    0.81755814799751
C         4.89868102726950    1.22944634345155   -0.54807346793714
C         4.82010054560872    2.44959454297641   -1.19997442797507
C         4.96494482440591    3.62808735865560   -0.48548146354766
C         5.18597780223370    3.57778118973606    0.87803155147954
C         3.80870930940828    2.44659792719234    4.15334489391860
C         2.68484738193897    2.18211415951362    3.37991015920823
C         1.42119583315531    2.26276661223463    3.94012505769919
C         1.26976525987014    2.61343656753372    5.27208921990413
C         2.38482979672515    2.88480427047983    6.04873008586417
C         3.64528814967960    2.80200679045197    5.48735988391989
C         8.53265714235638    5.25732466663823    7.69632394314439
C         9.78982351783810    5.34682457584290    7.10959556867655
C        10.77894340084085    6.13222678898505    7.67129011046525
C        10.51428288256878    6.84166865495831    8.83188398534742
C         9.26317973496726    6.76322028301718    9.42216718436235
C         8.27347019731696    5.97732007913169    8.85626331715312
H         8.15551395008668    0.95285990028894    3.41950939883116
H         8.87978238570286   -1.36782701418776    3.85118745818960
H         7.20894618858895   -3.08536726935259    4.46124129851759
H         4.82652570036786   -2.47762985152167    4.63490328517694
H         4.10211935645683   -0.16057512237120    4.21081682194929
H         5.19456307357406    0.22447943474831    1.32341668215069
H         4.78769187046960    0.31096368871214   -1.10578052270968
H         4.64952578614658    2.48139032460089   -2.26540131819455
H         4.91205401432202    4.58256894176717   -0.98803565071856
H         5.31246816699587    4.49822727804705    1.44711575445737
H         2.79964748196626    1.91756363980029    2.33377329245001
H         0.55157042834718    2.05342214170350    3.33442661859261
H         0.28230123272959    2.67855760142621    5.70326088018545
H         2.27419776592675    3.16614688485355    7.08556194957825
H         4.52758775753807    3.02503085833497    6.08648490963054
H         9.98457319333993    4.79469516621614    6.19072162154184
H        11.74938730380838    6.19444729448276    7.20139114962275
H        11.28131818150030    7.45893708399638    9.27448294734017
H         9.05620913365863    7.31831037593697   10.32550379855319
H         7.29148010864232    5.92663283137231    9.31525580444514
As        6.47380342285375    6.39452920506980    3.45595224811587
As        9.50173051017322    3.66923776780249    3.45602408337417
C         4.62786644720825    6.93453773949822    3.77132090383931
C        10.89277717910828    4.99759500801058    3.77101942873584
C         3.65152634798442    5.94899721205519    3.67907883872995
C        10.52745934496063    6.33593627688309    3.67909586251387
C         2.32326452587708    6.24380228330936    3.92306065409935
C        11.44688916659392    7.33879335563028    3.92336208016405
C         1.95986556755258    7.53617323244538    4.26663476490426
C        12.74778596172282    7.00726141586204    4.26698819654056
C         2.92551725738052    8.52496032068364    4.36484991910678
C        13.12122093612741    5.67657139850073    4.36511051479322
C         4.25566996974257    8.22670634513843    4.12179131905444
C        12.19786933568992    4.67379649622701    4.12172151231170
C         6.61303551381425    6.73588627490846    1.54239766976436
C         9.72839576159013    3.37777640941128    1.54251853085538
C         5.66342203822886    7.44546038582556    0.81728515343527
C        10.81774792988881    3.84543269602019    0.81746645831901
C         5.81676637152620    7.61561096118294   -0.54833674323972
C        10.88844077178797    3.62777469246416   -0.54819960617026
C         6.91286764699190    7.07371362636177   -1.20011878570886
C         9.87106872181079    2.94963377867551   -1.20010793607456
C         7.86109496220037    6.35920561417833   -0.48550897335137
C         8.77806871553839    2.48578143258578   -0.48560534887482
C         7.70691166174919    6.19297076017958    0.87799609036182
C         8.71116832801834    2.70223141402910    0.87793916187545
C         7.41561586017494    7.95118328415897    4.15329392888068
C        10.37943520742891    2.07543095685108    4.15322097876372
C         7.74861126197497    9.05671358180322    3.37990452694119
C        11.17003772610258    1.23403991027260    3.37974583887748
C         8.45027509007540   10.11070488695483    3.94020087388545
C        11.73180806424913    0.09925941917107    3.93998893158613
C         8.82956397516773   10.06647478440205    5.27219648545259
C        11.50400025737964   -0.20699858304083    5.27202890542033
C         8.50691606236778    8.96512592301308    6.04879732456203
C        10.71171952306850    0.62323603828638    6.04867451982026
C         7.80498081904034    7.91498066270922    5.48734799638218
C        10.15338720190464    1.75631142319711    5.48727319848112
C         5.58327738914217    4.76091426866740    7.69612830400866
C         7.48824903654717    2.45485479662920    7.69594651521479
C         4.87721647040550    5.80491271111826    7.10939281843689
C         6.93667474909404    1.32151301016837    7.10939811848151
C         3.70244280682555    6.26877342047583    7.67102713380687
C         7.12214634988043    0.07215789176277    7.67101193504139
C         3.22030106220567    5.68477277845825    8.83155108054847
C         7.86924190111429   -0.05355721109106    8.83134903532533
C         3.91382052930071    4.64056629056308    9.42189867179859
C         8.42714740910025    1.06903495598196    9.42157910303743
C         5.08934127242382    4.17646653105738    8.85606985876360
C         8.24150964655471    2.31915850673402    8.85576444012730
H         3.94863806834992    4.93353231193281    3.41973901711667
H         9.49949065476015    6.58643871439645    3.41981482943720
H         1.57674313130527    5.46665649942009    3.85145051236482
H        11.14719373804319    8.37389314629924    3.85171275392109
H         0.92469189878771    7.77252000748988    4.46107233760559
H        13.47010920490836    7.78554084779891    4.46137695950622
H         2.64216410576768    9.53199066990415    4.63421887657117
H        14.13501112233103    5.41840057276181    4.63444285961118
H         5.01098751816853    9.00080671001165    4.21010164824545
H        12.49052976530176    3.63261151034871    4.21012216179355
H         4.79830312503053    7.86179436655921    1.32305552130364
H        11.61082732485842    4.38646509333019    1.32330501618317
H         5.07678296376884    8.17081163906774   -1.10613718623322
H        11.73936494459529    3.99089940869237   -1.10590769160024
H         7.02573833390500    7.20545976801894   -2.26554995520619
H         9.92885369653695    2.78596663458917   -2.26552916901770
H         8.71423479605366    5.92784174214526   -0.98797538076972
H         7.97795379064118    1.96266564921748   -0.98816250956828
H         8.44084079123185    5.62335810797702    1.44717449728634
H         7.85078262320275    2.35154367700849    1.44699653520327
H         7.46220510162933    9.08959325884889    2.33374066639504
H        11.34150167007558    1.46547838012062    2.33351318181771
H         8.70388720966954   10.96849168946970    3.33453871327434
H        12.34776992543016   -0.54934332889923    3.33430418269022
H         9.37970154424441   10.88904720978655    5.70342507086466
H        11.94135870791919   -1.09467864883973    5.70328816811197
H         8.80577441975264    8.92024238680178    7.08565948166491
H        10.52360683963309    0.38697442968091    7.08559879697958
H         7.55684830569020    7.03938862440037    6.08644203906375
H         9.51926251591603    2.40904988175565    6.08641044536343
H         5.25806365175330    6.24965612571848    6.19055904428825
H         6.36079895497398    1.42911834916203    6.19076230902627
H         3.16331985364323    7.07804500347367    7.20108134732180
H         6.69067495919234   -0.79929540668015    7.20109594461552
H         2.30215863844941    6.04035243027345    9.27407633642708
H         8.02046125359098   -1.02653734532423    9.27372721550781
H         3.53654707084080    4.18377572015249   10.32521364434419
H         9.01163443966761    0.97055146676847   10.32471461377561
H         5.62425088160682    3.35141458487222    9.31509978498959
H         8.68872576914188    3.19484323839489    9.31479824677130

