41
CSD_code = RISPUF | q = 0 | S = 0 | Stoichiometry = C14H18N4NiO4 | MND = 6
Ni        9.36264518711542    2.47639376446192    4.96655107450525
N        10.38425856936428    2.55094603075733    6.57025178326794
N        12.23487653174878    2.20215387364346    5.24784968567475
H        11.59531533626278    2.14851283562255    4.44465298385989
H        13.20561435920629    2.37874499235716    5.05805161107860
N         8.68758421195704    0.73343362221728    5.33168604765037
N         6.69294755116064    1.75876411395011    5.84674835549424
H         7.15966279515219    2.65693704128679    5.66548959348150
H         5.68834664714957    1.74923575947797    5.82531808073677
O        10.49442678238607    1.70690540709624    2.90225048875957
O         8.44530628268817    2.40655940703044    3.26506050589429
O         9.91240238486688    4.29207307252967    4.59541961864122
O         7.98197051730248    4.42019466555247    5.63334667513094
C         9.36697306562210    2.02155268601778    2.48722726496045
C         9.02774028985478    1.91430514529705    1.01254061439427
H         8.65268917246866    0.91149766694726    0.81634687014764
H         9.92182100590783    2.07793096849497    0.41845823311528
H         8.25785859324779    2.63574801947179    0.75613230348583
C         8.92876664693981    4.95682897836572    5.03457843674340
C         8.96658593391568    6.46075183547555    4.83933281224754
H         9.32300147111890    6.92092347478909    5.75893608408902
H         7.96481196367091    6.82618363099301    4.63323269494749
H         9.64151377274458    6.71282847774370    4.02714680108645
C        11.72538277534578    2.54812164001360    6.44204851868602
C        12.54930053646989    2.83714963582648    7.54877641333446
H        13.62034101267333    2.83490684643695    7.41820827833914
C        11.97603309504677    3.12366519579940    8.76189409172197
H        12.59305421517177    3.35198837135725    9.61778007967343
C        10.58612417739930    3.11652073157259    8.87468131946534
H        10.10212327780482    3.33757099756363    9.81099369647174
C         9.83792595664656    2.82819488274658    7.75482576960840
H         8.75679919627703    2.82835043594224    7.79280605592684
C         7.36518066566115    0.62915943375889    5.56671118273930
C         6.73940477259385   -0.63348730995646    5.57946672909652
H         5.67723725527741   -0.68928106813864    5.76077412663718
C         7.48711808029753   -1.76044736284486    5.34935756123423
H         7.02087634071086   -2.73446946623919    5.34487909627032
C         8.85590429573630   -1.63180518356712    5.11613996259448
H         9.47329347306799   -2.49481526271704    4.93134824393197
C         9.40567601101744   -0.36928150957800    5.11527321937645
H        10.45990579094923   -0.22184647755660    4.92252703550383

