81
CSD_code = RISQOC | q = 0 | S = 0 | Stoichiometry = C31H44N2NiS3 | MND = 4
Ni        3.47668186896774    8.88167996745106    8.37084615824295
S         3.18114388881033    9.65143394040482   10.48443699795776
S         4.86332985624057    7.47005764135004    9.16136436389717
S         3.55124642217244    7.80636425523870    6.37860348356292
N         1.18639629087909   10.68051434547297    8.05854736560899
N         2.71990458168118   11.01396552555541    6.57950224010381
C         2.39766330576453   10.24826105252338    7.64608147453108
C         0.75774268327743   11.70803624845418    7.25537799968583
H        -0.19001233365245   12.18365659086979    7.39894321899760
C         1.71854201053625   11.91772189401499    6.33043546354304
H         1.78257821645599   12.63515665770560    5.53909824803553
C         3.96898051323556    8.35948694817728   11.50617169110111
H         4.96879012893774    8.70161785674288   11.78451768816935
H         3.36151191331597    8.25297107286689   12.40678204969965
C         4.04270215031816    7.06194024292361   10.73549714514515
H         3.04221164135791    6.68335992337296   10.51585385128565
H         4.63040516731038    6.29674607615831   11.25084164676148
C         4.54815237165348    5.98097797541826    8.15954334023512
H         5.27562097407236    5.21308645303559    8.43725451639198
H         3.53556274503958    5.63176221546710    8.36975240505659
C         4.68095513583966    6.41458826968341    6.71797700007068
H         4.40773672485834    5.60974545900965    6.03282165528449
H         5.70223642621870    6.73810434971267    6.50189043509982
C         0.41765410688018   10.26526341273767    9.18521714234596
C        -0.04811181502147    8.94557193827639    9.28948001275494
C        -0.91714663493933    8.64116120701167   10.32713311389998
H        -1.31052290703726    7.64267925477106   10.42386488854397
C        -1.29521711074582    9.59805828214636   11.25008698020043
H        -1.97969506686933    9.33925326274712   12.04467732448418
C        -0.77404679739967   10.87171931952915   11.17202479115782
H        -1.03873229945805   11.59989662960013   11.92261787422586
C         0.09029612332440   11.22943356225795   10.14483830485208
C         0.41673683803313    7.88124200406764    8.32270101392967
H         1.52577902429672    7.99868699686403    8.22139096564684
C         0.17222770912174    6.45188754166307    8.80371354399163
H         0.55968797380415    6.30500242748486    9.81031437242657
H         0.67742454732654    5.75974908271558    8.13222243579784
H        -0.88755281724493    6.20384316763931    8.79607780980811
C        -0.21624867276137    8.06619604018760    6.94156659977692
H        -1.28823234880418    7.88222384360412    6.99493104192413
H         0.22820171308297    7.36878199791802    6.23634561876522
H        -0.05702345131990    9.07037896272898    6.56057046378197
C         0.69431554591184   12.61604849605626   10.15739229268847
H         1.36433706551593   12.73308052021450    9.30295804825925
C        -0.38199492845903   13.70146561001927   10.07728367095987
H        -1.00783668778120   13.56925610312333    9.19677362784376
H         0.08400002646771   14.68282808799510   10.02270555111764
H        -1.02389083151802   13.67855504854759   10.95395158706013
C         1.54868422819330   12.79007417305741   11.41548086698556
H         0.94161134483074   12.74186003066449   12.31530314728859
H         2.05424080424076   13.75284907647862   11.39059151964740
H         2.29495057324950   12.00103737680516   11.45623632397349
C         3.86110548136316   10.90623876897912    5.73167703522542
C         5.15205789341856   11.09270432958134    6.24994373483070
C         6.21824507367683   11.08652092452782    5.36190927084248
H         7.22059428319762   11.24070709342300    5.72533981558132
C         6.02229005261720   10.88482658081203    4.00884127333946
H         6.86711494417231   10.88970422765810    3.33569256578054
C         4.75227151584431   10.65652571917894    3.52371348282238
H         4.61293122201816   10.46869096697355    2.47064226990638
C         3.65094060084933   10.65821733836854    4.37061805107633
C         5.37521877004087   11.28741070092464    7.73342597942852
H         4.75761001791417   10.52339856458246    8.27042693640126
C         6.81650076035090   11.05765950296616    8.18337306610816
H         7.18211144182747   10.09550226555949    7.83182828454400
H         6.85197379620587   11.05841373687033    9.27073525934397
H         7.47796290174642   11.84525028528524    7.82698440862832
C         4.91450873873048   12.67953582984813    8.17388345697394
H         5.53065599482122   13.44248324765499    7.70013205959891
H         5.00558026897621   12.77466072255451    9.25285930694815
H         3.87700529998552   12.86062146324620    7.90719217018287
C         2.29145697682076   10.33989606457434    3.78906290081184
H         1.54546302123162   10.32716943019406    4.58661615461402
C         2.29906752728944    8.94003492159477    3.17079682911759
H         2.97629001052724    8.88379681222156    2.32310004836491
H         1.29889387974326    8.68069902039514    2.83088194811226
H         2.61412471319841    8.21727290251292    3.91849116290450
C         1.87410685940870   11.38604774657327    2.75190837518843
H         1.88660981919304   12.38796657374272    3.17666387797340
H         0.86772697347565   11.17638227653854    2.39634028518402
H         2.54650322314684   11.37434356415948    1.89802861757162

