41
CSD_code = RISQAM | q = 0 | S = 0 | Stoichiometry = C20H17AuClOP | MND = 2
Au        7.78917276964873    1.41351975314728    7.30698510641429
Cl        9.47147927258330   -0.05347922846039    6.91861279498743
P         6.11256967179299    2.84070441305981    7.81079150633438
O         7.34568812479351    3.71194858224065    6.04994312525894
C         5.17091368739434    2.14830478030203    9.22070306504360
C         5.92912766168122    1.60027438717842   10.25347495296308
C         5.31236644776882    1.02429782800911   11.34658863719355
C         3.92793341331657    0.97452538022379   11.40870747526757
C         3.16788457150105    1.50241236446075   10.37858078826053
C         3.78370429735283    2.08884115722533    9.28605336352209
C         4.79684304361268    3.11307551178710    6.59373496990095
C         4.51508081292924    2.07797942815606    5.71069151506283
C         3.51291682143931    2.22942840488854    4.77001047386309
C         2.79537714293628    3.41334486595272    4.70800867321081
C         3.07946957770854    4.44667237412165    5.58626050425585
C         4.07944860254767    4.30208257431613    6.53137152961061
C         6.54876143057249    4.48125744371949    8.45560713135767
C         6.08603704996788    4.93546082964111    9.68817602842477
C         6.47942741565965    6.16974962570454   10.16970385930142
C         7.36025359611652    6.96277122301471    9.44434437703792
C         7.84886615392563    6.52057209530447    8.23237799529393
C         7.44496673323490    5.28574365516398    7.72593218475616
C         7.92157209082907    4.71245577423704    6.47036086235508
C         9.11724153004909    5.28813344064849    5.77973102700833
H         7.01035121544030    1.63113212301049   10.18122927596711
H         5.90669494797518    0.60502385419201   12.14478524808864
H         3.44244889486072    0.51664150186920   12.25760897393693
H         2.08951956711992    1.45585130647104   10.42391553837985
H         3.18662193310990    2.49881712946757    8.48312545075103
H         5.09332353419040    1.16516311970049    5.76534717948033
H         3.29363990810626    1.42668386571804    4.08181435063523
H         2.01467346471781    3.53301337358861    3.97145322473485
H         2.52031048100031    5.36976481042513    5.53480057318204
H         4.30276058384228    5.10664536041322    7.21968092636032
H         5.40765088857893    4.32444227469077   10.26604853596707
H         6.09818210118332    6.51876819777938   11.11778967079547
H         7.66352529125523    7.92354100792517    9.83184556487375
H         8.53340036272719    7.13532882066561    7.66847524291195
H         9.94985282842628    5.37477638141920    6.47483906562413
H         8.88247572930077    6.28050841863205    5.39737615963274
H         9.39886634871935    4.64362178998811    4.95131307204000

