83
CSD_code = RISWIB | q = 0 | S = 0 | Stoichiometry = C41H32N4P2RuS3 | MND = 6
Ru        2.08544934397121    3.28154022423620    3.50552451773578
P         0.86924623340548    5.24100663234119    3.58035121031170
P         3.07565841551347    1.19929880709434    3.36790019350253
N         0.31542612433492    2.39039585477706    3.88957134808837
C        -0.81379870807402    5.29344742600126    2.89843801224117
N         3.68696405073391    4.27326173929914    3.22268993860543
C         4.80253655430502    1.47631549323519    2.88626297576705
C         3.17099551227618    0.14209417546692    4.84419737268396
C         1.68358000251766    6.56565818473667    2.64607229137426
C         0.63085941280680    5.88476933532610    5.25963301623163
C         2.45293511113755   -0.01063831646054    2.16146041928842
N         4.16849874149997    4.59405585259722    2.02205935665360
N         4.01453486376649    4.43454081851805   -0.24832974263972
H         4.76468355011038    5.10066747625065   -0.31970304444197
H         3.41096611267034    4.29618221230769   -1.04044239226570
C        -0.81253996082413    2.22292699688186    4.17873492615811
C         4.39794612199555    4.78122529596744    4.25273174669506
C        -1.68194113126853    6.30914816373769    3.29072803508743
H        -1.35415619052676    7.04950083290200    4.00831303774160
C        -0.32310181200506    5.21707788998066    6.02908040899052
H        -0.91793498788595    4.43145751443986    5.58152637215194
C        -1.22733797462951    4.34792024957684    1.96657825360439
H        -0.54708524782829    3.56483632913767    1.65573045086051
C         2.08894431010622    0.16282681935537    5.71830981628847
H         1.26653450210790    0.84152820803332    5.52927437720139
C         1.15422378807127    0.10663312599247    1.68146291672798
H         0.54403713600805    0.94361339898085    1.99612070804432
C         1.44132288376616    6.64011551165777    1.22894893843180
H         0.68946443695036    5.98980460276752    0.80976771797837
C         1.23699988530768    7.20568011469040    7.16918701433554
H         1.84858512449238    7.97712364183402    7.61446059785999
C         4.23515639664094   -0.72292352379978    5.07761992796569
H         5.08196122538148   -0.74079515773865    4.40523821239189
C         4.00769603130014    4.46061833556068    5.52800278280250
H         4.54528869364291    4.82275187384376    6.39011353237150
C        -2.50941559639571    4.40368556586885    1.45029362536362
H        -2.83240842045696    3.65904290332953    0.73833043989306
C         5.16736139694680    1.51766691779952    1.54398833214241
H         4.44585801992124    1.24629912712097    0.78426877691152
C         2.07595616246894   -0.66871178493021    6.82276379772296
H         1.23636870089172   -0.64659521896477    7.50117354744541
C         2.65392715655915    7.34755503062754    3.21387512493004
C        -0.49737671802349    5.55672838327826    7.35590545012724
H        -1.23711657349807    5.03855883107594    7.94749340103390
C         0.28043222715006    6.55215989412470    7.92730721641101
H         0.14504499945125    6.81390726480028    8.96637611833834
C         5.71666763151250    1.86366388720620    3.86469634220224
H         5.41594787974922    1.86051987590402    4.90550536394919
C        -3.37753029785945    5.40309831363515    1.85556211550910
H        -4.38222248347259    5.43819835094482    1.46114483659108
C         0.65240908355337   -0.84120061195811    0.80728548891180
H        -0.35656117866709   -0.74597637994071    0.43470586137981
C         3.50996189440126    4.18012641694068    0.97687741155570
C         1.41841253305028    6.86891389872383    5.83966238907096
H         2.17164073833153    7.36911582955618    5.23696624537273
C        -2.96047003314152    6.35843500577300    2.76926738081016
H        -3.63638286012824    7.14120044606292    3.08108334263846
C         6.99247849072893    2.25133524049427    3.50219723027364
H         7.70119161350496    2.54511985256314    4.26315714742187
C         3.24222208421043   -1.08996170794291    1.77236532559565
H         4.25146949545540   -1.18547665853828    2.14849664433133
C         1.44167797601835   -1.90842179867030    0.41400163954769
H         1.05039188422553   -2.64820316407239   -0.26890035790560
C         6.44521665235994    1.91032784503344    1.18877545912732
H         6.72554120465875    1.94103323524850    0.14607638193223
C         3.13935273121421   -1.52474047409370    7.05738111303113
H         3.13188329717558   -2.17288027016960    7.92140434624951
C         2.73543822420149   -2.03136760668334    0.89728734713570
H         3.35014951560176   -2.86578586742332    0.59178277015528
C         3.27584990336474    8.14800258185018    2.38007447957781
C         7.35788074095833    2.27419591785306    2.16479484212418
H         8.35361132222608    2.58480492589095    1.88366028274846
C         4.21621331375073   -1.54969586691402    6.18576347474916
H         5.04623383320219   -2.21665314685971    6.36988858002286
C         2.16793475403726    7.51418838088268    0.48647320941611
C         3.07835208808245    8.23552968849739    1.10686469487205
S        -2.32788368854686    1.95529124346667    4.54932070683738
S         2.69343514194183    3.44340473281143    5.83298023010227
S         2.03328022196437    3.29167471169093    1.04928690259511
C         5.60600519206679    5.62260426933605    3.96877009917394
H         6.33318272775757    5.03610300449677    3.40782369515733
H         6.05238759708286    5.96874426110011    4.89610739056505
H         5.32780086740892    6.47616858456521    3.35351851014046

