59
CSD_code = RISXEW | q = 0 | S = 0 | Stoichiometry = C21H32Cl4PTa | MND = 10
Ta        1.50954188000196    2.81360167420313    2.69402201053696
Cl        0.09232683023855    2.10463000626442    4.46383683188110
Cl        3.12259820642118    1.34810391927724    3.60291159868933
Cl        3.33371231521120    3.89735320171771    1.69635181725562
Cl        0.37379527290829    4.85569756020970    2.72774265703500
P         2.54022060049293    3.88180407788963    4.89913029869710
C         1.63903011817462    1.70229199282387   -0.05794129095783
C         1.49839451823471    0.52171007559686    0.69641271637371
C         0.35276588173856    0.62043959534658    1.48711283568274
C        -0.23436623820247    1.89899267766213    1.26045752846315
C         0.57559110780083    2.56373168939498    0.29363041341635
C         2.72964077626428    2.01686316652577   -1.01693171544514
C         2.00493031389820    5.39200331292395    5.75051565499288
C         1.18732769444798    5.35054750281898    6.88855292903986
C         0.92876241734209    6.53865237646450    7.55655458625201
C         1.41170203909518    7.75840378507005    7.10922509014783
C         2.15314033299702    7.78344841850628    5.93630944820951
C         2.44366375259530    6.62360458836062    5.24011517536138
C         0.59588585784722    4.06226621588693    7.40151823737999
C        -0.89758545755897    4.19891632172407    7.70143423021324
C         1.36243698217509    3.58813618576543    8.63799823238536
C         1.11301083876413    9.02576314083549    7.86968451017125
C         0.28101672892754    9.98512121795297    7.01591346546908
C         2.40715026339291    9.69537970008422    8.33692008320348
C         3.22844629617062    6.68346049246323    3.95625973409223
C         2.65033170077067    7.70507052860595    2.97777728462165
C         4.70251076884298    6.97062541147835    4.24378925792500
H         2.59188754215441    2.94377059618419    5.91350399903888
H         3.91592981109723    4.06574524455704    4.81745603492377
H         2.16178085618258   -0.32523157331117    0.65285390469858
H        -0.05826603085694   -0.15146905345063    2.11722888509058
H        -1.25287977496561    2.16514667088526    1.50517084045216
H         0.31357017649030    3.47852707720147   -0.21645240291587
H         3.28254125954308    1.11960507470242   -1.28397611309371
H         3.42581966652466    2.72705426636225   -0.56125112498627
H         2.33271370198709    2.47963549530015   -1.91918505229663
H         0.32522229035199    6.51588015565108    8.45134327377969
H         2.50977820315709    8.72646304402516    5.55372343522731
H         0.68350537366923    3.30610745507208    6.61521566705092
H        -1.31727478009754    3.21709733417110    7.90553519385477
H        -1.41310510886324    4.61944269278315    6.84173530362308
H        -1.08033331838805    4.83234458636011    8.56572458887400
H         2.41919218150970    3.46114213995411    8.40786615134384
H         0.96543700642472    2.63694573989212    8.98366355737915
H         1.27482003319297    4.31391607148903    9.44357510376775
H         0.52613976089655    8.76238447073360    8.75643978518107
H        -0.63194742819207    9.49830926525343    6.68090087425392
H         0.83819778659075   10.30723430540636    6.14009184257989
H         0.01266316010717   10.86583550818082    7.59501855718648
H         2.17913743687502   10.57074095309127    8.94081030934526
H         3.00806006300050   10.01224020502177    7.48844645967925
H         2.99649514141200    9.00486547698806    8.93620771999428
H         3.14902600252723    5.70126335477748    3.46717797438749
H         1.58919730857185    7.52155727452850    2.83270318662238
H         3.15031786784801    7.61057989637345    2.01722489238458
H         2.78686829832280    8.72253801535383    3.33504033185938
H         5.27374751738960    6.95085648042640    3.31933464258399
H         5.11428108310223    6.22532957460300    4.92227106886789
H         4.81789511342743    7.94932336556730    4.70409748817000

