54
CSD_code = RISXUO | q = 0 | S = 0 | Stoichiometry = C18H22MnN5O8 | MND = 6
Mn        5.34186088628606    4.64130108456668   10.51159546120680
O         3.92198946638468    3.82782663554972    9.76623130359854
C         2.91718846233828    3.27609539973127   10.36262653505517
C         2.33111557878749    2.07810392293778    9.85048551525444
N         1.28345850447559    1.52992173746884   10.40895791499514
C         0.73445028338370    2.07676875741804   11.48917234845821
H        -0.12606913117563    1.55272350012039   11.88243867843206
C         1.21188776160706    3.21979696445738   12.09827442865888
C         2.33661639929781    3.85081873970925   11.52574447581445
C         2.89419067890929    5.06280824532063   12.05487774422754
H         2.32399533767857    5.57371364239189   12.82882134721060
C         0.56539102610838    3.74258549416976   13.35694888095094
H         0.03150750135905    4.67626281045840   13.14521405568283
H        -0.16976925269169    3.00642285761231   13.71059509513141
O         1.47978739909708    4.05909286333399   14.38284807253882
H         2.02235264629787    3.28349571303338   14.56691573708434
C         2.98580316135707    1.39791457794471    8.69712902638545
H         2.45439160598447    0.48232862693792    8.45977938456459
H         4.01687579596283    1.17476466098706    8.97173268081495
H         3.00414929910758    2.05460713234149    7.82822430509729
N         4.00567110308265    5.56820802656202   11.64642061960672
C         4.46413739642471    6.81019148040010   12.22507774888500
H         3.93622364340166    7.05192368463112   13.15474350186887
H         4.30632029181300    7.61428389351203   11.49589142228834
C         5.96657425675702    6.63120281210809   12.46348333964807
H         6.46031145782552    7.58977865832755   12.66395534143460
H         6.11009279155254    5.95693556316799   13.31677717173453
N         6.49521733708465    5.97738603260893   11.28723974588262
C         7.66349301985783    6.33935997653263   10.85158906447444
H         8.17668888773025    7.15466512178306   11.36063422964292
C         8.35769884120969    5.70210856129284    9.78320801470695
C         9.58863423359167    6.17428007209763    9.26375974033541
C        10.21356917929721    5.43729333983245    8.28511492244682
H        11.14940569666304    5.76815672090978    7.86339332519920
N         9.72986405868392    4.29332229732637    7.79381243716373
C         8.60932214725142    3.80607060418729    8.24781672613482
C         7.84271468073316    4.47273502598523    9.26228177747330
C        10.20182354815923    7.45741104968777    9.76369904948609
H         9.45056886268440    8.26303383809424    9.71669493200410
H        10.49447326190284    7.32389008803630   10.81827206582807
O        11.32305654837919    7.79659193925641    8.98448743810796
H        11.73438397417560    8.58457949629281    9.35362474861460
C         8.07741899684997    2.52883722491627    7.68442501038424
H         8.89210557814333    1.93817596055729    7.27887425766284
H         7.36839709109453    2.73442645172096    6.88259598557094
H         7.55219950895987    1.97804654505165    8.46223376719080
O         6.76772371735989    3.94373966782914    9.71603570754809
O         5.11560254310831    5.98548153602383    8.65024197871791
H         5.92187285981088    5.88039807948164    8.12959584506787
H         4.40012970440856    5.59273456046281    8.13312232932971
O         5.61402342162824    3.44749140904525   12.16926727916913
N         5.58480653494326    2.18070920436332   11.97977444218122
O         5.64410523882044    1.46716781017787   12.94943443398283
O         5.48389617605523    1.77712990124299   10.83820860906767

