93
CSD_code = RISYUQ | q = 0 | S = 0 | Stoichiometry = C45H21F18N2O6Y | MND = 8
C         8.96122746662619    5.15494867562385    5.45284273561450
H         9.59674169581131    4.54654156033489    4.81996150835466
C         7.60678996909180    4.87861638269959    5.57546374894819
H         7.17193740985692    4.04479838999106    5.04865068314932
C         6.84058118189492    5.68133177620718    6.40391398185936
H         5.78893708910752    5.48445828028482    6.54714507090601
C         7.44934500886294    6.73998302818419    7.05609684699628
H         6.87982203287989    7.36630321246002    7.72388483562925
C         8.81395815978449    6.95755509992772    6.87422128309658
C         9.53484534658714    8.04484344132840    7.56465163256382
C         8.87702405887074    9.16445102533270    8.09882938690354
H         7.82477458650902    9.31712586226855    7.92457268285456
C         9.59350913508446   10.07816743195382    8.83114949722738
H         9.09977589322738   10.94661624512021    9.23893460542808
C        10.97412242552406    9.90879070468444    9.01266546379155
C        11.58838143948228    8.87147127790932    8.25883343077726
C        13.00393081644613    8.84728712463638    8.13459334332864
H        13.46258601039667    8.06751728569454    7.53808748517913
C        13.75038611400701    9.83332264210500    8.69269037032426
H        14.81636659915782    9.86409278190652    8.52582504594433
C        13.16758396678797   10.82449233768448    9.53003770312107
C        13.95061358692547   11.87891918966792   10.05540408619970
H        15.00425409769865   11.90522711990741    9.82424210291106
C        13.36280096749176   12.87600712518405   10.77008360461499
H        13.92884191036860   13.74250312929838   11.07836398456061
C        12.00903173710275   12.78148955138968   11.17132900610932
C        11.39532379070788   13.82234158960108   11.90875029722990
H        11.97547129313167   14.70363803321312   12.13800741592012
C        10.08877995379162   13.73146876827595   12.27107725700255
H         9.58779929704475   14.55883671970058   12.75160278837363
C         9.37944247817367   12.51710521620147   12.10530572352933
C         8.03807606472859   12.39698199613681   12.55890547097153
H         7.55549363466625   13.27638215206039   12.95954077935757
C         7.37407155898222   11.21929982548218   12.46825643992734
H         6.33727319714197   11.14224248176437   12.76130023697310
C         8.05553270323295   10.03679113412393   12.07102600223745
C         7.42649184459699    8.78116687810986   12.14063783413611
H         6.38512958169881    8.74036578539923   12.42613076743242
C         8.12430130548161    7.62957810462072   11.88820596926068
H         7.64085493479409    6.66625113304519   11.94170310664386
C         9.49377415028187    7.70031826268360   11.61678476970469
H        10.06196125116637    6.78891737276681   11.50499291807310
C        10.12207012992228    8.91385740030862   11.50844849145438
H        11.18869782127702    8.94138550485351   11.34528048570258
C         9.40807579448654   10.11690401375942   11.65941032356339
C        10.01244331646844   11.41441192144624   11.50147494095356
C        11.25631538529295   11.63477238777229   10.82715589164086
C        11.78958065791147   10.77369759900634    9.81750405568853
C        13.54590072496152    5.74551120863614   11.11450245792991
C        12.42686031656014    5.50877502486305   10.07746147185588
C        11.34173745603507    4.71412163383473   10.44178537809812
H        11.30865474378500    4.23228954950810   11.40369108232108
C        10.31484759475081    4.52284019508683    9.51181293159163
C         9.12782445327654    3.64845048457794    9.97953021732425
C        13.34973465312331    2.06901168334161    8.51949537683397
C        13.46971373278672    3.40617214434811    7.75301010207701
C        14.74060614421187    3.99022771275849    7.73836161364440
H        15.57781276916269    3.47798726514366    8.17963158390227
C        14.89681635215940    5.25784303002913    7.18773246104899
C        16.29046777715306    5.91715528924680    7.22768473937061
C        13.62222936601743    3.76111850922695    3.62466854865639
C        12.96185054471246    5.07469519916468    4.09176861589925
C        13.57230601033425    6.27644490061750    3.72972998561197
H        14.41209219735958    6.28932039101933    3.05698331256865
C        13.15261659942832    7.43999960671193    4.37859612019751
C        13.97546557058314    8.72695768901631    4.14684994326059
Y        11.78531073683622    5.97870603263008    6.82488701180595
N         9.55720054862831    6.15876855915821    6.08696015765980
N        10.85958630020100    7.93375645887049    7.62005599883831
F        13.56993015506182    7.03977202610471   11.47587623610916
F        13.42614840206218    5.03401916214503   12.23642094302169
F        14.74285694680716    5.46441376648299   10.58633683737675
F         9.50421693118901    2.46393931086091   10.46451880859639
F         8.43458691028624    4.26227441104362   10.95861066845514
F         8.26524785983942    3.42767815456059    8.98392610164138
F        12.20537470892858    1.44602719899183    8.24852848727455
F        14.34742180335013    1.21750003154426    8.27287125180007
F        13.36171725888632    2.30630113512540    9.84736668336259
F        16.72842713815144    6.15591130242441    5.98282878903343
F        16.22663347427159    7.10108464612998    7.85084591020511
F        17.22952538277620    5.19586385993560    7.84107394580044
F        14.31034731679206    3.23526187109674    4.65633361539485
F        12.71498834900679    2.85410828615147    3.25588608295193
F        14.48086890688643    3.89681082545865    2.61106941497800
F        14.74601512053673    8.70016619858469    3.05614427876090
F        13.18134060097228    9.79951633930266    4.03971742606161
F        14.78142188963571    8.94788102645862    5.19682128922835
O        12.60599419274396    6.09657566662559    8.98903196231700
O        10.22361519121738    5.01110360030226    8.37230485430673
O        12.41053076757386    3.86217351923484    7.28345396137991
O        14.01500305462635    5.96949041976956    6.65076281692395
O        11.96947393306265    4.92370024153892    4.83514892492486
O        12.22155026274424    7.54989947030082    5.20254550748515

