49
CSD_code = RISZIF | q = 0 | S = 0 | Stoichiometry = C18H20N3O7V | MND = 6
V        -3.56860825176623    4.54031949699652   33.36749304247024
O        -4.98878144886696    4.71551728194736   32.84218680964477
O        -1.22793741793995    3.63468689391214   34.34109806932310
H        -1.34576568544913    4.21611679011340   35.10449329450523
N        -3.68155110846532    2.51865185190435   33.04461811825390
C        -2.64002412521066    3.92563470482055   30.82336892435622
C        -0.05036642489478    4.02877241391241   33.66562517454831
H         0.07073838487561    3.35300197005080   32.81949973020484
H         0.82209636253454    3.93942340255385   34.32307412746323
H        -0.12414259668917    5.05552328089828   33.29260912877296
O        -3.00931482849406    5.90935336951877   34.08546512593198
O        -3.90356331843014    3.86292659120528   35.07781797463534
N        -4.07096310819910    1.82632217879672   34.13037007269670
C        -2.15473019971369    4.55416598700186   29.67569296503147
H        -1.73042848809706    5.54371992838671   29.75768332332123
C        -3.36317267338847    7.10428923610544   34.64138622538853
H        -2.48843871219697    7.76547698711239   34.73809139120038
H        -3.77903725751718    6.92061332804986   35.64651519101592
H        -4.13332040637862    7.59723009588090   34.02869297831560
O        -2.56656211183156    4.51055585093945   31.97239888575323
C        -2.22387064766352    3.95724002960284   28.42482482424568
N        -5.20933083344415    2.45424592383244   38.73050350803929
O        -1.74442725726468    4.62392840009621   27.38019298912334
H        -1.88126784955265    4.06312401381153   26.57174779111696
C        -2.80142138259113    2.66048917960882   28.30010537718218
O        -2.46816541578590    2.60165308488002   25.97218484891935
C        -3.25582199660724    2.02515622775721   29.45412364331733
H        -3.68974728940914    1.04392218238689   29.36218896476410
C        -3.18789135696594    2.60574865697488   30.71518583635133
C        -2.90027327869209    2.04532516029931   26.97823229122466
C        -3.55542474386754    0.69287012451778   26.86172272977019
H        -3.56506282490797    0.39949137892355   25.81487847861507
H        -4.57682820766449    0.73367455368167   27.23241046368668
H        -3.00094830795278   -0.04737401722378   27.43401114720585
C        -3.62208178075555    1.90539993862014   31.90295302106239
C        -4.00249034577891    0.45413940844627   31.80505407695201
H        -4.14334350339434    0.06034489373939   32.80755580970689
H        -3.22776313266355   -0.11300094976109   31.29415605872741
H        -4.93668434795616    0.35289603483683   31.25489866208451
C        -4.18874723108389    2.61829684849686   35.15999948775134
C        -4.64554544966373    2.05676132625966   36.44094803679358
C        -4.92363005419765    0.69929179386671   36.59633845248981
H        -4.80651354039281    0.03526782775752   35.75455153611295
C        -5.34324698237637    0.24573973810318   37.83353421608741
H        -5.56950294306976   -0.79669619279832   37.99640167114578
C        -5.46860846460025    1.16427552511247   38.86771040123377
H        -5.79184702261816    0.85748354667712   39.85385254101414
C        -4.81161452481864    2.88778956975046   37.55081776842618
H        -4.61352586813927    3.94911415163636   37.46813481401901

