73
CSD_code = RISZUO | q = 0 | S = 0 | Stoichiometry = C36H30N2NiP2S2 | MND = 4
Ni        2.09895324328957    0.73018720362010    5.06535546733801
P         0.63490839463496    1.66674333695278    3.77815949947761
P         2.48144263508145   -0.64534138843149    3.43214593198642
S         3.11567823721341   -0.47609398580995    6.55562691712264
S         2.07205340011724    2.42158188491642    6.40186139241699
C         3.29117798435333    0.57120766607565    7.90533973725821
C         2.79594031961542    1.82550888505227    7.89603632130978
C         2.84501771211557    2.70776054403475    9.03636659316102
C         2.28160030713213    4.01591239760650    8.98633511564063
N         2.29135314834309    4.83057652323446    9.99696493580765
C         2.87585635341564    4.39415801360765   11.14039542287503
C         2.91892298403556    5.22875033386702   12.27014760997582
C         3.51043377881607    4.78548461359427   13.42226517560896
C         4.07714056467033    3.50223703764911   13.48745068182477
C         4.05044743380340    2.66769442734198   12.40475296528805
C         3.44735396320066    3.09339811458256   11.20330662172963
N         3.41929395062728    2.26606154995006   10.14258941087531
C         0.11128813710628    3.39033389786418    3.61427939888189
C         0.41535853872011    4.17731830978276    2.50941262745721
C         0.02229298896887    5.50383685776418    2.48133259463276
C        -0.65616992819855    6.05424729215913    3.55595781798913
C        -0.94081937512590    5.27807078985624    4.66869333089925
C        -0.55597285649515    3.95218879450520    4.70131551582474
C        -0.89805723524394    0.82403746679318    4.28030946624238
C        -2.12632084438669    1.08635113505529    3.68308612085528
C        -3.24852303060586    0.39344076021813    4.09831344299666
C        -3.15028188420676   -0.55629994641794    5.10442695084695
C        -1.92908302089899   -0.81457694515005    5.70623966691833
C        -0.80467703655417   -0.12234206369335    5.29599362192635
C         0.83192345565277    1.03662213381951    2.04434586596066
C         1.17406255726208   -0.44630459190503    2.13169277458984
C         2.93476133064389   -2.39765456293613    3.39682945655337
C         2.10334067418093   -3.39895033753345    2.90934955725696
C         2.51455329096486   -4.71942246207277    2.96131229686511
C         3.74269740509618   -5.04792459043871    3.51068012493820
C         4.56459519672233   -4.05344370236180    4.01774886774420
C         4.16142254296534   -2.73379825351311    3.96702267014109
C         3.90508415448273    0.14546258856858    2.61794360498663
C         4.39099506007350    1.32201659091320    3.18014449583500
C         5.45510145194359    1.98360488718844    2.59560440095653
C         6.03906852984774    1.46541635094757    1.45080245218343
C         5.56360404008819    0.28759764054821    0.89372885140088
C         4.49796677035036   -0.37607096873941    1.47324059746654
H         3.79056436576066    0.15423030025486    8.76540975422843
H         1.81713126704972    4.37016935385072    8.07450309521452
H         2.47762199238212    6.21107854960384   12.19690858839098
H         3.54591156893643    5.42263312194072   14.29414231447293
H         4.53847748803903    3.17745379717960   14.40926809999159
H         4.48040679324627    1.67832513391555   12.43576168214818
H         0.95641740135257    3.75978351422225    1.67266730753740
H         0.25206035168210    6.11209882579826    1.61853196434512
H        -0.95589304557920    7.09135687126765    3.52958819087840
H        -1.45768416045030    5.71002315621211    5.51252470065700
H        -0.76023531218519    3.33909423849234    5.56853203584989
H        -2.19919143164741    1.83676836086712    2.90729081289199
H        -4.20536186089564    0.59538233362695    3.63923411596463
H        -4.03218547125721   -1.09146896623886    5.42418183928928
H        -1.85603871415928   -1.54840029820273    6.49500237331101
H         0.17037348589239   -0.30052542907056    5.77382809242129
H        -0.07921192826369    1.21404274720479    1.46617423959384
H         1.66145838501246    1.57984955210050    1.58078199395685
H         1.52439514695074   -0.84271710169043    1.17440428013324
H         0.29220211840520   -1.01027736833626    2.45225783700946
H         1.13873954212112   -3.15387230444064    2.48922427096563
H         1.87036361758172   -5.49599738813881    2.57517760929031
H         4.05601882202624   -6.08060631641646    3.55041843879664
H         5.51693283448718   -4.30980358026885    4.45731650617922
H         4.78570269564109   -1.94905187742842    4.37252240465862
H         3.92550965723929    1.70977464394792    4.09942132735943
H         5.83173212246165    2.89623675666744    3.03278300290826
H         6.87317008764844    1.97637187963593    0.99297599828574
H         6.02886590891996   -0.11505127329219    0.00577857049860
H         4.13076094772328   -1.30128546239007    1.04968218110905

