113
CSD_code = RITBOL | q = 0 | S = 0 | Stoichiometry = C60H44N8Ti | MND = 8
Ti       -0.66256338756797   17.71159188653630   15.19765044601030
N        -0.20092414918846   18.99858749069644   16.61439184810875
N         0.27272448790396   17.80381590848101   16.97128587957679
N         0.60523915412417   16.42443968466261   14.41616160295178
N         1.19840845095126   17.61854731105732   14.45180174181158
C         0.40865980274028   19.95505905345537   17.33662176558494
C         1.19838210401266   17.96364393670286   17.93218926143585
C         1.30767240428388   19.33266447190567   18.20679289080770
C         1.53641869017201   15.46700922080217   14.26029479767646
C         2.52599294384784   17.45741223994627   14.31966375568749
C         2.78568955255810   16.08817461218369   14.18041206106973
C         1.00320957565876   22.36316504751168   17.47070140276374
C         0.65665317236718   23.69400787446771   17.32923076563858
C        -0.61595511267790   24.04342457487414   16.90905709879325
C        -1.54411923800386   23.05506315593623   16.62406650985999
C        -1.20183823700288   21.72426230695777   16.75664403296923
C         0.07509605666861   21.36477018113220   17.18597372795264
C         1.94604101941703   15.61841037560293   17.81971648475666
C         2.62914130702995   14.53649463029220   18.33854601891099
C         3.30454402338822   14.65292340364436   19.54304609966390
C         3.29121491137654   15.85907570440940   20.22416418733809
C         2.60614283927560   16.94420217042832   19.71024099636598
C         1.92276467624357   16.83627733027568   18.50047249683833
C        -0.06968591345129   13.70099817039500   13.65954548330657
C        -0.41841828641356   12.37091146159119   13.53717435672948
C         0.47278881627699   11.38063782043449   13.91755206165471
C         1.71595903071751   11.72746508615240   14.41997169260277
C         2.07366987913495   13.05760115673411   14.53843427338935
C         1.18279883472538   14.05790259235751   14.15762090644372
C         3.02297219434058   19.80311321554830   14.88734392620308
C         3.88099959137485   20.88368416722170   14.93757082238831
C         5.17812921063204   20.76443174856833   14.46461704062901
C         5.60993154079079   19.55689440041580   13.94088877474644
C         4.75367679590198   18.47307282035151   13.88572384987783
C         3.44714505307515   18.58370847595618   14.35788347204636
H         1.94884201559174   19.80671107004690   18.92233683676147
H         3.73716425878487   15.61314667232156   14.05046574957445
H         1.99757655185036   22.09166596753051   17.79424548987624
H         1.38214460854623   24.46407843889764   17.54958314095218
H        -0.88403306586538   25.08440526939221   16.80530294813086
H        -2.53779070164680   23.32467503997468   16.29834253354937
H        -1.92096531826952   20.94341213270518   16.55114878026005
H         1.42899358024051   15.53694465338203   16.87287467352547
H         2.63672761852272   13.59979822175586   17.79990229543299
H         3.83988450879363   13.80760243495327   19.94974926560883
H         3.81616465907126   15.95282775283961   21.16380691491879
H         2.59106013946369   17.87744596543404   20.25274936327560
H        -0.75021273636881   14.48336490844136   13.35310416471201
H        -1.38759501072221   12.10338234767415   13.14305550670815
H         0.19987030333169   10.34019496967933   13.82127549704286
H         2.41099270677071   10.95587778723224   14.71910908975437
H         3.04191884601216   13.32701000840579   14.93477725907445
H         2.01365836426798   19.88683417532033   15.26792899671490
H         3.53700154731251   21.82170685547313   15.34920771048611
H         5.85056228698219   21.60871054830626   14.50397862581334
H         6.62038571709969   19.46089732975212   13.57069462930719
H         5.09444898060831   17.53862117113726   13.46601429276274
N        -1.12419334358502   18.99858369928604   13.78089978119774
N        -1.59784957634811   17.80381216084017   13.42401215580918
N        -1.93038247541247   16.42447864597741   15.97915301093724
N        -2.52355542205504   17.61858416904092   15.94348995999099
C        -3.85114164269752   17.45744343346408   16.07561410785852
C        -4.11082961817671   16.08820992732552   16.21490420504902
C        -2.86156229422905   15.46704549987643   16.13500972966665
C        -2.50792900913434   14.05794103246942   16.23766736762075
C        -1.25546467943031   13.70104824739349   16.73580853428840
C        -0.90672630653892   12.37096435099002   16.85819844894393
C        -1.79790122153804   11.38068326874531   16.47776338975010
C        -3.04104901168445   11.72749933040167   15.97527418359609
C        -3.39877203314967   13.05763198355887   15.85680501956334
H        -4.36701958502761   13.32703498067874   15.46046771704439
H        -3.73606150394912   10.95590645329850   15.67611198234050
H        -1.52496262645402   10.34024295663906   16.57400514967749
H         0.06245112974628   12.10344089993556   17.25231343894547
H        -0.57495985841524   14.48341881366677   17.04228782101937
H        -5.06230642714400   15.61318257375550   16.34484031448666
C        -4.77230634150150   18.58373210499657   16.03736478641889
C        -4.34815396679552   19.80312019080730   15.50785572394906
C        -5.20616141692643   20.88370530089707   15.45765556187839
C        -6.50323044515247   20.76449804662071   15.93073517666636
C        -6.93501483178113   19.55697241596819   16.45450370801460
C        -6.07879840167579   18.47312444932003   16.50959817017487
H        -6.41959647960014   17.53865426463392   16.92926374370537
H        -7.94556733475868   19.46090566818571   16.82452232571001
H        -7.17572275743477   21.60873987304403   15.89128483774507
H        -4.86214457912108   21.82174339752017   15.04606260205871
H        -3.33877946560007   19.88688002065429   15.12737287068447
C        -2.52352822111829   17.96364344284071   12.46312908121925
C        -2.63282787026206   19.33266474239167   12.18853402187407
C        -1.73379956761189   19.95505738463041   13.05869092935624
C        -1.40025563784392   21.36477186336252   13.20934947124117
C        -2.32839374443934   22.36315431771517   12.92465122159411
C        -1.98185977896284   23.69400215490094   13.06613344858275
C        -0.70924209874516   24.04343757797785   13.48627113819452
C         0.21894087156577   23.05508790963109   13.77124076323025
C        -0.12332133787093   21.72428257955792   13.63866455437311
H         0.59581632401833   20.94344280983250   13.84416016495504
H         1.21260348894740   23.32471384091577   14.09698135542731
H        -0.44118370868715   25.08442104639781   13.59004076236916
H        -2.70735073832611   24.46406151688422   12.84575405525270
H        -3.32274296017819   22.09164515174804   12.60107445395312
H        -3.27401840090915   19.80671378969246   11.47300978427340
C        -3.24792998445723   16.83628150117390   11.89485972323984
C        -3.27120050146329   15.61841438466706   12.57561270786377
C        -3.95431816942886   14.53650289237238   12.05679993066672
C        -4.62972689370913   14.65293170368830   10.85230918761553
C        -4.61640447041547   15.85908566144673   10.17119269979285
C        -3.93132970068415   16.94421178014112   10.68510808620293
H        -3.91627238100734   17.87746431709046   10.14261022958150
H        -5.14143652882608   15.95286588003880    9.23158705543934
H        -5.16511399933477   13.80762687711051   10.44562556618854
H        -3.96187864654648   13.59979804855113   12.59542836842181
H        -2.75409547315886   15.53693125690848   13.52242911748089

