54
CSD_code = RITCIJ | q = 0 | S = 0 | Stoichiometry = C22H25ClN2O2RuS | MND = 9
C         7.29344620411097    5.97313998141881   13.96327994880796
H         7.35364718573395    5.01718529656279   13.46561151984848
C         8.39042061059069    6.52279812807624   14.60649656496915
H         9.33036729875186    5.99217600577237   14.61168793061574
C         8.27821523623792    7.74937999514906   15.24221268691580
H         9.13501860905652    8.17534701283265   15.74351719607841
C         7.07236963419557    8.43300870963224   15.24066764643471
H         6.98842741419291    9.38708920804780   15.73934338206001
C         5.97298521524823    7.88822580495446   14.59785524501215
H         5.01867548469022    8.39123596033857   14.57030197015362
C         6.09968030071061    6.66647595362101   13.96683276409797
C         5.85511693755842    6.12082564148656   10.80798739556809
C         6.04455101144813    7.50512230671771   10.89152472808220
H         5.69273163836943    8.03137173183656   11.76331751095200
C         6.63209608652552    8.18273891588845    9.84179167850908
H         6.76277226431576    9.25201247162229    9.91429579698264
C         7.04255037327057    7.51951142465092    8.69517432388615
H         7.49070067052542    8.06464023322146    7.87968045692966
C         6.87758634094871    6.14608350649642    8.60252928558346
H         7.19988255882879    5.61458678295616    7.71727594060484
C         6.30276369854599    5.45473574287785    9.64947637221623
C         4.55268643918752    0.14229585192481   12.17385928761669
H         4.71609863908602   -0.58106942285987   11.37814642752448
H         3.96191425633290   -0.31746866730587   12.96384193806031
H         5.52292090326729    0.41444907421831   12.59408661198358
C         3.87290094151124    1.37338330495882   11.65678761907220
C         3.27708755478191    2.29715920737787   12.56165406307676
H         3.31141296412111    2.09976749112449   13.62622728134882
C         2.60118703201078    3.43032210233304   12.09674858736324
H         2.12742405261367    4.07874183255733   12.81998245104041
C         2.50458585546976    3.71693034211912   10.71176509224238
C         3.10823447461530    2.80521349782055    9.81946640373762
H         2.97869683840205    2.94966203304197    8.75032337996521
C         3.75699249687427    1.62727195489384   10.27770942093746
H         4.11370582076058    0.89408995874097    9.55973682005532
C         1.72120812673669    4.88931590780292   10.15947065394789
H         1.08414651985650    4.49875557257866    9.35227820479056
C         0.83355300834031    5.56773500164835   11.20036154942819
H         0.16554774754928    4.85340399669618   11.67784782142339
H         0.22688194306044    6.32892593131553   10.71486046965891
H         1.44633572831601    6.05688905546517   11.95514184883332
C         2.67515118899789    5.93115242116045    9.56476264450039
H         3.36246750965217    5.48397847769973    8.84861504967269
H         3.25105782837934    6.39082524080780   10.36465991836186
H         2.10994444547664    6.71039096531955    9.05880159906516
N         5.22758459539356    5.35264166267304   11.73462725847545
N         6.14125616662122    4.01548132391977    9.64634734540360
H         7.00761745671871    3.58189329325935   10.01076516940250
H         6.00039384884097    3.67718396736983    8.69150214469546
O         4.26461528847377    4.77713940924953   13.89717192699098
O         3.67878356454790    6.95730194935579   12.94949035512970
S         4.68049142315030    5.93722779384572   13.15353129664321
Cl        6.74811799225372    2.85498180567202   12.26199882643247
Ru        4.74649257475276    3.42983684905650   11.20647018880639

