83
CSD_code = RITCIG | q = 0 | S = 0 | Stoichiometry = C37H40HfN4O | MND = 6
Hf        8.66060053993113    3.06264450196104    9.23709602553806
O         8.66059947049940    4.88972308471969    9.59833946292445
N         7.22576561218815    1.55589067916702    9.71187916071900
N         7.05304326099626    3.25518689858701    7.80793744101791
C         8.66060407821111    1.06986704211941   11.63129092117430
C         7.40781012386406    0.68458147456606   10.85116464078131
C         6.18669151524169    1.37166550772866    8.91000161804098
C         5.31407234958535    0.27192121667294    9.07159085502059
C         4.14493810971742   -0.09804320883065    8.44224652601812
C         3.42075047396411    0.56177834207129    7.46514791665659
C         3.77271231513971    1.76070206569846    6.86911833803188
C         4.90580292493289    2.52650731384723    7.03178384108809
C         6.04340287203840    2.40285458349631    7.86292383142516
C         7.01390810460276    4.40726010033211    6.92912473937473
C         7.37377846763430    4.07827722128958    5.47061565326179
C         8.66060511547095    3.26900457001591    5.31584529322966
C         8.66059872488011    4.38895301767143   10.90550540971910
C         7.40334384296313    4.84610561774541   11.69107140152398
C         6.13428710635089    4.28610771405216   11.12764422930301
C         5.47068476583099    3.23775461552721   11.75722334941541
C         4.26815151976172    2.76166059081117   11.26528141528726
C         3.69930672885937    3.33859175163783   10.14386529208377
C         4.34570791804807    4.38820853950075    9.51404117956074
C         5.55694255452306    4.85313363636311    9.99552527811966
H         8.66060664613544    2.15356666146325   11.80319137380930
H         8.66060566473457    0.53929868871128   12.58682970189160
H         7.51613615794628   -0.36550955826037   10.53386627942804
H         6.52981024356869    0.74410856212557   11.51079061515803
H         5.61660542923383   -0.42776303183411    9.83708395749503
H         3.71714598262708   -1.03245787091010    8.78891650548346
H         2.49393746822466    0.10507303104307    7.14497042118589
H         3.06278498496011    2.14583302715613    6.14488884169217
H         4.90965185147777    3.40387571962178    6.40216944892555
H         7.72090682544304    5.12826139005690    7.34296763063347
H         6.02590774369832    4.88869057600734    6.94630782829510
H         6.56088332893114    3.49631834620929    5.02963050226190
H         7.45422709511474    5.01306668213174    4.91030029651275
H         8.66060731953264    2.82422856455041    4.31668283102220
H         8.66060645054259    2.44993052763598    6.04354798361850
H         7.50451483050638    4.54489538339427   12.73742801903310
H         7.35710719475700    5.94218898420830   11.65376616647833
H         5.88803588151372    2.81253911566486   12.66015963921988
H         3.76233655361354    1.94812200954728   11.76653346104662
H         2.75539418582407    2.97517069016747    9.76521092561390
H         3.89093941185929    4.85471688684893    8.65149452634696
H         6.04974784449405    5.68915122363719    9.52094359650062
C         9.91339210627768    0.68457669672691   10.85115734604648
N        10.09543654917679    1.55588973169644    9.71187489399332
C         9.94742720584454    4.07828406615892    5.47061835927719
C        10.30729413562328    4.40726701509168    6.92912832027916
N        10.26815958779974    3.25519248040833    7.80793913858303
C        11.27779932959470    2.40285942078406    7.86292243018745
C        11.13450865101798    1.37166507020847    8.90999468050805
C        12.00712330921047    0.27191608834438    9.07157555029829
C        13.17625609697501   -0.09804798911066    8.44222819020321
C        13.90044692067496    0.56177920107802    7.46513579445980
C        13.54849015950849    1.76070948015591    6.86911623469165
C        12.41540140528616    2.52651646176394    7.03178589938989
H        12.41155632459712    3.40389072374379    6.40217959582388
H        14.25842017384149    2.14584460609130    6.14489157783365
H        14.82725854923303    0.10507325014922    7.14495521490027
H        13.60404425768514   -1.03246739905088    8.78889027956774
H        11.70458674463090   -0.42777331525913    9.83706262325923
H         9.60029339777029    5.12826648687672    7.34297095388595
H        11.29529346189179    4.88869959687118    6.94631345883448
H        10.76032611365917    3.49632993578911    5.02963390762865
H         9.86697442184541    5.01307364482646    4.91030384108824
H         9.80505834630460   -0.36551239193486   10.53385513524381
H        10.79139545795336    0.74409565589348   11.51077943364689
C         9.91785238232391    4.84610658830379   11.69107256040120
C        11.18690951670513    4.28610781863340   11.12764700232191
C        11.85050683146137    3.23775025514041   11.75722388979813
C        13.05304004159304    2.76165448140885   11.26528349848451
C        13.62188979405366    3.33858834504307   10.14387129202775
C        12.97549366175817    4.38820966815829    9.51404954554590
C        11.76425902676174    4.85313651216879    9.99553199878318
H        11.27145766603089    5.68915731468583    9.52095191597118
H        13.43026606299991    4.85472012775004    8.65150611187885
H        14.56580233427909    2.97516591787654    9.76521821170347
H        13.55885109425997    1.94811235102148   11.76653375392246
H        11.43315184523317    2.81253243262078   12.66015729021539
H         9.81668033179130    4.54489727132906   12.73742935989965
H         9.96408911437106    5.94218991262705   11.65376633844594

