115
CSD_code = RITDAZ | q = 0 | S = 0 | Stoichiometry = C53H54HfN6O | MND = 7
Hf       10.46703295286691    9.87358750650845    5.06357561388411
O         8.96260436055833    8.90142628231613    4.22374396338184
N        11.05259378506526   10.09900179448254    2.87717079727192
N        11.52603686302174   11.88321238865310    4.70677767845592
N        11.98742551741375    9.96616212140220    6.71286623409139
N        11.73877579765537    8.05652229478344    5.00943277932912
N         8.54544462920697   11.83679380978814    7.05149201698914
N         9.10357554401429    8.49138628599389    6.71568876760869
C        11.76504974588228   11.14273330045977    2.50046932543566
C        11.91923984672597   11.55020525465464    1.15406424328351
C        12.81170723523263   12.40721187586455    0.55390341412304
C        13.91540634245896   13.04394768601625    1.10502747671601
C        14.22100485817142   13.11589273818312    2.45238524723078
C        13.46690319071673   12.71130222098091    3.53545774840884
C        12.27211047920377   11.96549463008820    3.61645914613226
C        11.73462139113764   12.85672512909519    5.76539170714966
C        12.64817896043923   12.35840613138291    6.89057250276084
C        12.05678041595246   11.12474929880242    7.58550387799322
C        13.03044802327107    9.15048964019179    6.63389504336264
C        14.28040861049197    9.43066219659320    7.22692948806627
C        15.40765153773349    8.65793263140132    7.42043873144183
C        15.59874459275875    7.30793541858515    7.19097032052919
C        14.68018745902640    6.44564982857973    6.61140940065983
C        13.48197770574395    6.73219099525698    6.00148981104707
C        12.76652859580162    7.94014408310822    5.83002294401018
C        11.35338544786028    6.94487416963824    4.16181210780552
C        12.33762144784904    6.62981733070579    3.02215103125533
C        12.78177704952916    7.83810796081696    2.19799590266209
C        11.74775959736273    8.38091481061232    1.21069247882483
C        10.59643159314644    9.16427603601242    1.86302771652194
C         9.16304913427357   11.21511703951469    6.29021798695743
C         7.74909718930964    8.61905625562039    4.78645333134426
C         6.77784209083998    9.85941687702889    4.66962000068839
C         6.92996461067191   10.48586074498692    3.31697244141567
C         6.04729619903106   10.18308581480107    2.28528294123101
C         6.22828355187317   10.70932465754824    1.01806282282512
C         7.29861752382925   11.54875843664149    0.76145168745571
C         8.17268088388786   11.87336365148547    1.78559109366154
C         7.99150637012090   11.34756836839488    3.05363966655392
C         7.05767357154407    7.45507854954142    4.00011232652408
C         7.88216593529287    6.21179384239543    3.85900544129248
C         8.03740775438141    5.31033812039368    4.90581461075324
C         8.78855291527213    4.15895458946049    4.74697769255793
C         9.39046073226081    3.88065144546588    3.53213088491752
C         9.23022458359153    4.76101451947992    2.47626516408663
C         8.48524465951407    5.91508366615968    2.64095807422017
C         7.92610540533125    8.29864341718086    6.27624287550298
C         6.72505889611064    7.85358686574962    7.08096023776921
C         5.83302999341351    9.00028916456931    7.49423333368218
C         6.32480238293060   10.06191020323050    8.24253504796857
C         5.49303856540165   11.10243070113830    8.61467673787660
C         4.15633797520104   11.09078234964382    8.25625071775286
C         3.65409361677356   10.02995302882594    7.52292087834772
C         4.48835088079644    8.99381061404695    7.14313615966819
C         9.49624718139718    8.33165063280931    8.09576552871171
C        10.57692055787850    7.29118985867601    8.25669948996497
C        11.65689957118520    7.52138544125493    9.09868483032234
C        12.59662274705896    6.53152598623496    9.32251382372228
C        12.46685363302081    5.29893772220991    8.70676467624818
C        11.40233859218634    5.06789468494657    7.85289830708026
C        10.46246626534872    6.05807550826596    7.62920780200482
H        11.18837943457635   11.12335382203078    0.47835904867194
H        12.67326838455499   12.54756668471655   -0.51262997357812
H        14.58596584196607   13.54527495299235    0.42004604071440
H        15.14493631389679   13.62698243720901    2.69972151454655
H        13.88738641622736   12.98778260832497    4.49294409297955
H        10.75261947269712   13.08311660565593    6.19571831990610
H        12.13843892904437   13.79248998886606    5.35494756328632
H        13.63116854623507   12.11397719315975    6.48284354345516
H        12.76761993831913   13.15819286739569    7.62545263058239
H        12.63224192931020   10.90104792290847    8.49510602824602
H        11.03424493214833   11.37089047202300    7.89212515501712
H        14.39603810909021   10.44542469180898    7.57954035576472
H        16.24640230276672    9.17958857458879    7.86878136169840
H        16.54255625021159    6.88329036143686    7.50575308808067
H        14.97044862417668    5.40105815459310    6.58654496110673
H        12.98644997145914    5.86501215953279    5.58772534638340
H        10.38170242416317    7.20414897154605    3.74753212917574
H        11.21111452527873    6.02884975318659    4.75510464163294
H        13.23692013849286    6.17467724275510    3.44340953949960
H        11.86572845325418    5.89104328119868    2.37006934573761
H        13.66299515661883    7.53997359044410    1.62218467987532
H        13.09096080989423    8.63948109145332    2.87390819974806
H        12.27334367090478    9.04103254670764    0.51617561892280
H        11.32327787282923    7.55732699719462    0.63165802663078
H         9.90420810754161    8.48423188946676    2.35261398385313
H        10.02705966396776    9.67900033401803    1.07476914704482
H         5.74974450290491    9.53486714733001    4.82924010921748
H         7.04103748535070   10.58299904804623    5.44068813883578
H         5.19992263654162    9.53877805392571    2.47673575672824
H         5.53167627507008   10.46343418213226    0.22927487231190
H         7.44279327063855   11.95664203688799   -0.22858464808778
H         9.00024941505181   12.54299689392965    1.59972857648422
H         8.67162166506851   11.63032425766507    3.85287077212655
H         6.09924073666638    7.21815524314264    4.46423063131311
H         6.86434045288619    7.85414988099328    3.00330094826688
H         7.55166852886369    5.49694053461660    5.85218211143851
H         8.89451519837577    3.46988148840625    5.57305669645257
H         9.97048465129779    2.97824435981705    3.40650509045476
H         9.67864163245595    4.54258617846812    1.51766865833199
H         8.36012348510238    6.59484377282755    1.81003271569402
H         7.05907384812814    7.32216206539649    7.97679693636992
H         6.13144896633183    7.15560126884492    6.49094082033406
H         7.36585811388270   10.09311021992230    8.51915302233549
H         5.89722532511385   11.92705682170327    9.18083503276278
H         3.50761333990449   11.90373832974425    8.54634163211718
H         2.61103523509235   10.00862366374115    7.24221066514160
H         4.08539827076619    8.16912731147032    6.57027620205895
H         8.66103152472822    8.05893122358486    8.75934659601823
H         9.88336130771565    9.29993036947514    8.42865285398333
H        11.75734297602562    8.47861827109452    9.58928120419323
H        13.43280676050639    6.72264355003225    9.97835995865473
H        13.19624016060386    4.52379124148687    8.88803633672221
H        11.30007540483638    4.11051450772714    7.36205961763429
H         9.63480506441961    5.87800427372991    6.95971017348989

