53
CSD_code = RITHOS | q = 0 | S = 0 | Stoichiometry = C22H18Cl2N6NiO4 | MND = 6
Ni        2.61230018173366    3.63091906545784    9.99051362884611
Cl       -0.14647378432419    8.24295855499418   10.01543964557913
Cl        1.94088366552396   -1.49803650459151   11.45256861107837
N         1.92797690877369    5.02318730483788    9.09744821641726
N         2.64510623802809    3.97359786884335    7.19679927873764
N         3.51700143200524    3.33653721776343    8.01561035050697
N         3.14893411470365    2.21664936334413   10.94885461205025
N         4.71537456595179    3.61046494843894   11.86184453211167
N         4.55066693429584    4.34705321015362   10.73639575489863
O         1.96877968593418    4.70051593395709   11.64801379400733
O         1.16208360366439    6.72857738787849   12.07199761460972
O         1.26798629668814    2.25927189077395    9.19280212774243
O         0.95599033248210    0.05842761878095    9.25307290335599
C         1.47561316041916    5.81755017449114   11.33532245028884
C         1.31985304306838    5.98199881792210    9.79018747702541
C         0.64629754860678    7.01280798874795    9.13478830768243
C         0.63110801088348    7.02593693578702    7.74255904721564
H         0.11712146482526    7.81728760809818    7.22091909132640
C         1.28560597602351    6.02913939552837    7.04401719224657
H         1.30526750334847    6.04723122540893    5.96900153106253
C         1.92568207448397    5.01964532770347    7.75801226719026
C         1.67940111292135    3.73879332007814    4.87016296937851
H         1.66069600075765    2.93475853733296    4.13923354969315
H         2.02668660842958    4.64274501132447    4.36887967202192
H         0.66694127657908    3.90024865143586    5.23572014787876
C         2.58194060747379    3.35197641712611    5.98181910736330
C         3.46249953191207    2.30031448777479    6.04305841904359
H         3.66993185674214    1.59111431422796    5.26839801004419
C         4.02104260155755    2.32653769074938    7.33653287956207
C         5.01229928084274    1.39741667105931    7.93226913133407
H         5.38814874268703    1.81657067339988    8.86252191707898
H         5.83737843285490    1.22287873043245    7.24505743792056
H         4.53575825661053    0.44030916658717    8.14305250408568
C         1.45327895070037    1.09536183025041    9.63854477274194
C         2.49581246223455    1.06743686022096   10.80201793472862
C         2.78051707678589   -0.02092824095262   11.62679717699219
C         3.76735308120996    0.11401756959390   12.59976266151780
H         4.00089971234670   -0.71878040579563   13.24350401433143
C         4.44538524143477    1.31206166378711   12.72160813311755
H         5.23014068695095    1.41681477489940   13.44938738591623
C         4.10284618336002    2.36487872567510   11.87741530736227
C         5.67041546296528    3.85603714204603   14.19123478360777
H         5.97451405587478    4.70670149484531   14.79542279525185
H         6.48063572792195    3.12635041750248   14.20356381404646
H         4.78313554776742    3.41118102801215   14.63808965440206
C         5.38260594204681    4.32705253884055   12.81454154295285
C         5.65985084159181    5.54826846365147   12.25146129188871
H         6.17137291212890    6.36699333751813   12.71424175056089
C         5.11616264640856    5.51720498814544   10.95178369019665
C         5.11804499096647    6.58748415696737    9.92437959891980
H         4.80235193130563    6.17310085950174    8.96993021164159
H         6.10897231657613    7.02593619777587    9.82749572540935
H         4.42352096288540    7.37534159163035   10.21484357507897

