49
CSD_code = RITJAH | q = 0 | S = 0 | Stoichiometry = C24H15F3N2O3PtS | MND = 4
Pt        1.21541303289154    1.46955300856896    8.12375426410328
S         2.18249569824222   -0.77045946115069    3.85179727822015
F        -2.36528068307257    4.22087027365192    7.27867897660619
F        -3.16198362954997    2.89851852272814    5.77685654404128
F        -1.82842981501595    4.48671690276795    5.20992067629379
O         3.04887628305438    1.59919854125989   13.14495150982805
O         1.32314827443145    0.70287862250606    6.11229938617427
O        -0.36452537355517    2.59569370123903    7.50049598993943
N         2.95978553134170    0.69874082088167   10.23290465029432
N         3.64517159236005   -0.45209071677139    8.54991256500854
C         2.72545732599227    0.45505947971203    8.91943208190519
C         4.44153572847452   -0.76867492502902    9.61910651683343
C         4.00967297603485   -0.04249698924600   10.68219471364132
C         2.11624154596319    1.62606687333177   10.85823045358253
C         1.14104074973968    2.16687034012809   10.00195203436082
C         0.24460641250024    3.10229965988428   10.51657358506077
C         0.29159259065662    3.50627411591268   11.84111687914369
C         1.25752278704750    2.96501650837606   12.67859977047335
C         1.60732334455199    3.12960946039799   14.06571481626073
C         1.11452043808013    3.89487266362981   15.11378122413167
C         1.72436764885550    3.78651251320260   16.34893329720425
C         2.80662200954483    2.93439301320860   16.54702447393959
C         3.31500394856982    2.16176754789258   15.51667778960020
C         2.70297741564635    2.27154262914105   14.28258795271959
C         2.17617858263013    2.01869167489736   12.18142796771771
C         3.78534243201659   -1.01700037696955    7.23672351604136
C         1.92004995682478   -1.09207711741597    2.19195073675779
C         0.87822382413911   -0.37863016280794    1.68215035896545
C         0.26956457146047    0.44958811454473    2.64122722534066
C         0.85889776344459    0.35542346872041    3.87556008089180
C         0.57640812043761    1.01199062399735    5.14585559457794
C        -0.49581364835178    1.93055924991372    5.19692988327631
C        -0.85159724787102    2.61482641785509    6.34353334616617
C        -2.05514214861826    3.56201320721810    6.16238516040145
H         5.24192331422428   -1.47546197750793    9.54219553118500
H         4.35798595885679    0.00242271319984   11.69310541645057
H        -0.50657392760666    3.52239826907911    9.86471530981164
H        -0.41070476957804    4.23125208584215   12.22275825264779
H         0.27553936323408    4.55582628325231   14.96132252861839
H         1.35709319636924    4.37217760704951   17.17831918876861
H         3.26033630725532    2.87335860062195   17.52467850874342
H         4.15321917854782    1.49970827100211   15.66471229080619
H         3.64753687447173   -2.09845769662983    7.27297984908162
H         4.77581241483970   -0.79988530030067    6.83491581671067
H         3.02866294836852   -0.57836771587356    6.59001336632481
H         2.55224177687961   -1.79274472522889    1.68345528220380
H         0.55629284708420   -0.44163125704733    0.65809148515789
H        -0.56776784889249    1.08545798951015    2.42042378646853
H        -1.06816567294200    2.11212864684750    4.30397208754350

