53
CSD_code = RITJEK | q = 0 | S = 0 | Stoichiometry = C22H20N6NiO4 | MND = 6
Ni        0.74434885337389    9.09185418130461   13.98152144911892
N         0.00784824793439   10.11301172514009   15.24231001806418
N        -0.17507820168714    8.22919200650435   16.51352517744680
N         0.81044749646086    7.75168730026375   15.71596821595632
N         1.36258686927840    8.12090707124816   12.61987621028173
N         3.37249126733397    9.15225848153942   12.93047007151167
N         2.91322615590751    9.39143313780129   14.18233788354221
O         0.92989552333500   10.89637891925170   12.96733053056231
O         0.51523072116829   13.04897583234448   13.38328562168835
O        -1.00377061216707    8.01331383200955   13.64006183103100
O        -1.65693074271404    6.35454281828234   12.29811985203735
C         0.47696635933227   11.86215004357387   13.64496318883164
C        -0.16382011210813   11.40434215485323   14.97770941468185
C        -0.84610974349732   12.24075414744999   15.84802895163603
H        -0.95811932473112   13.27964710594452   15.58226000635958
C        -1.35131339830442   11.70409222344347   17.01974065725160
H        -1.88694927268261   12.32309351875304   17.72362146875157
C        -1.15806022968446   10.35852444577853   17.29734680853206
H        -1.52076705981439    9.93551157776433   18.21724929024817
C        -0.47471371209584    9.57866568778974   16.37071995668809
C        -1.90622858530813    7.37162259715175   18.14560364540411
H        -2.30014117974645    6.38646271702523   18.38099642221869
H        -2.69430598417849    7.95864581639854   17.67718580890534
H        -1.61245888072401    7.85054678396016   19.08022852104031
C        -0.75166753182326    7.21802201439314   17.22682532263965
C        -0.08506209944640    6.07061491963545   16.87312243850371
H        -0.27365481720414    5.08115923855240   17.23604185936597
C         0.88137034284153    6.45257883201408   15.92174410254995
C         1.85640407244900    5.59738028287163   15.20084126568800
H         1.34013100631297    5.01983762344381   14.43424587042751
H         2.33907258190616    4.90272223980422   15.88492828800467
H         2.60442956308975    6.22579203178717   14.72330555858743
C        -0.86688445881150    7.19178264245990   12.68998740100836
C         0.51787475135842    7.29852863179670   12.00557531056148
C         0.88320697119235    6.59839552053179   10.86588030493548
H         0.15695564000214    5.94648632717009   10.40753110016831
C         2.16454768040845    6.76609796663401   10.36979466743468
H         2.48761062825116    6.23624055738605    9.48639529780295
C         3.04645838999636    7.61576253472749   11.02177627843310
H         4.05399985331358    7.73297272765880   10.66409801932179
C         2.60456691829543    8.29481966940336   12.15201896333271
C         5.18292838566544    9.96392143742037   11.36304245882750
H         5.84211469794531   10.82795968565139   11.35423211447518
H         4.47633834765037   10.05670307809623   10.54012371718961
H         5.79221120306916    9.07235202340939   11.21087067141934
C         4.46923064506648    9.91986254038106   12.66286388179469
C         4.71302212281087   10.64974786201537   13.80026497619490
H         5.49776577962076   11.36264775229535   13.94948489688825
C         3.71135552115191   10.28894550554631   14.72321495388043
C         3.49984389042262   10.79689381358909   16.10125702630047
H         3.09518247693756   11.80795388691608   16.06059869672426
H         4.43929666202181   10.82666776439017   16.64904933822858
H         2.79067632080925   10.15493676444321   16.61832421752107

