41
CSD_code = RITKAJ | q = 0 | S = 0 | Stoichiometry = C20H11ClN3O3ReS2 | MND = 6
Re        0.82187673803065   20.21799946506392    8.63539627413365
Cl       -0.71613417542417   19.31728356904485    7.07668839827386
S        -2.27878044638476   17.81140096166661   10.90525149495689
S         4.30429435297731   18.86310842291837    8.71702922282574
O         2.70772857889372   20.57358281637561    6.21346622576432
O        -0.38759341906840   23.02979663302557    8.24479438105369
O         2.78388405916019   21.07797528991745   10.86377601521173
N        -0.68095878193179   19.60261066860737   10.02421414766240
N         1.16837613601814   17.99345267117744    8.89265616001060
N         3.82588445796096   17.42734402995277    6.64309081072713
C         2.05711449191462   20.47844932655981    7.14980840146567
C         0.11832666791716   22.01504782612833    8.39962368956398
C         2.06372650500007   20.77062789954526   10.02221619772612
C        -1.65403302168725   20.26265735181979   10.69241890095547
H        -1.62557141032328   21.33707792243516   10.74895314403794
C        -2.60624874228890   19.46477900569012   11.23890246850888
H        -3.47227035647351   19.74567742683618   11.80238310004771
C        -0.86523877389179   18.30374748591417   10.03864788215078
C         0.06275432387336   17.40762982949142    9.39097733532724
C        -0.19398094790800   16.04704530842348    9.27958040403730
H        -1.10932015636890   15.64708485378942    9.68826747509632
C         0.69572168596749   15.23793389437413    8.57960574953538
C         1.84213040786342   15.84797241138615    8.07735205622887
H         2.58942884992815   15.28369043250114    7.54407687745180
C         2.05560357459236   17.21029318980277    8.27295366356642
C         3.30424557978087   17.76783926624060    7.77185523884728
C         5.00634396562356   18.03412231920385    6.42277877228599
H         5.52184491114119   17.85006488810737    5.49827836410937
C         5.43624258288463   18.84353013858618    7.42945899996026
H         6.33896558556170   19.41585094918748    7.49069265842233
C         0.43884712828335   13.80815993162055    8.38243420125666
C        -0.12946636120087   13.04260940403261    9.39868599881124
H        -0.36103479713267   13.49981344264400   10.34982922366509
C        -0.36675591392029   11.69438683246416    9.20790385005368
H        -0.79921361211064   11.10820101136280   10.00509474364169
C        -0.05182771052748   11.09647408029587    7.99875369879678
H        -0.24281299424136   10.04438570217591    7.84994210142936
C         0.50784430169497   11.85171518010533    6.98118773351749
H         0.74961303191908   11.39016251278530    6.03556935422741
C         0.75824274547252   13.19764546267260    7.17114509999605
H         1.17690095840296   13.78797018607136    6.36985948470848

