45
CSD_code = RITKEN | q = 0 | S = 0 | Stoichiometry = C22H13ClN5O3Re | MND = 6
Re        7.51492206034021    2.87751438738099   16.54468284848474
Cl        6.35226903860227    4.56917372850447   17.74678509623309
O         5.49158197952384    3.45055983055361   14.27272755595960
O         9.37526201666953    5.06806128489153   15.41723553233521
O         9.06259838341341    0.53535821279083   15.24966313456487
N         8.55255815369361    2.68398731848127   18.35743974683094
N         6.16347087392718    1.65806086934524   17.80672784900882
N         3.40044896239938    1.45151933259051   15.66837321070337
N         9.61573150366832    2.64069968005332   20.92836968672005
N         5.13595372841833    0.22621470283860   13.90293358493960
C         6.26731997618971    3.17869120103876   15.06794814193186
C         8.70186436241468    4.21886881143049   15.78117329833897
C         8.47015630601553    1.40676658707356   15.70853111540466
C         9.79420442835919    3.10061436936128   18.61147918755319
H        10.38022311863412    3.44815794753584   17.77121008948000
C        10.31322737870607    3.09244064020482   19.89471662550437
H        11.31005807915142    3.45139860794182   20.10327279888668
C         8.39389918555836    2.21683666904364   20.68228831402868
H         7.85217097508097    1.83592857038663   21.53552091964663
C         7.82552743682488    2.24566907799122   19.40512698558908
C         6.46312627508155    1.79440709288863   19.11218936657461
C         5.53579811512158    1.54739649690515   20.11707404902717
H         5.79631936783242    1.71678053664134   21.14871534474236
C         4.23830784985073    1.16433786256762   19.78763014850403
C         3.95277002373785    0.99754938070917   18.43609247851184
H         2.97708772379915    0.68502614135869   18.10159666187420
C         4.93596575105970    1.23965195207149   17.48517638351892
C         4.59535136457137    1.02328579467112   16.06916687770610
C         5.43798841612340    0.34214731812843   15.18230898145507
H         6.34672015736539   -0.14215652954811   15.51135929418631
C         3.99739951998148    0.75720350215532   13.48905509197801
H         3.79533617751365    0.70070840959771   12.42948350959132
C         3.09923176684328    1.32005030536358   14.39005470501097
H         2.12349237602637    1.67549132201613   14.09059214028149
C         3.21752886664008    0.95533265231223   20.81885162119340
C         3.54235526219178    0.34473086665816   22.02844076811671
H         4.55073202738548   -0.00305282207929   22.20102051270507
C         2.57362750452215    0.14935797333691   22.99485204183548
H         2.83415612085080   -0.33278371340494   23.92522049846377
C         1.27313698015698    0.57048971065268   22.77186282300687
H         0.51915362823327    0.42174216175664   23.53005222839122
C         0.94284858228389    1.18297567472538   21.57421345023987
H        -0.06866611078290    1.51723786752211   21.39913195830982
C         1.90527404818090    1.37008212754545   20.60011675113599
H         1.64951025778353    1.86578608598777   19.67563659151529

