40
CSD_code = RITKEK | q = 1 | S = 0 | Stoichiometry = C19H12N4O3ReS(1+) | MND = 6
Re        1.68105586247225    1.89912410133072    3.25610673484600
S         8.85119771717058   -1.46359291881727    1.25304433827445
O         0.04569946674038    3.98192888334300    4.85991635149044
O         3.51963689400999    4.05975528506132    2.01300508766126
O        -0.23141664154785    2.06150254960903    0.82495849906120
N         2.92081669084779    1.47767584410268    4.95380274200701
N         0.69655472838905    0.26372162401721    4.23277660989143
N         2.86055290018416    0.29530904661096    2.25789083294304
N         6.31762749551818   -0.58353768089680    1.81172059938226
C         0.64515664857077    3.23189189248459    4.24917822283320
C         2.81472747336971    3.28150188272262    2.45695625931093
C         0.48032317306699    2.03293739657424    1.71538028511198
C         3.99144431394394    2.18322300297070    5.31202083661643
C         4.81112326006083    1.83145891410983    6.36987920381626
C         4.50805051341308    0.68656432683191    7.09037075795805
C         3.38825820544763   -0.04373520897773    6.73438105238142
C         2.60238626263525    0.37837967904848    5.66377387118682
C         1.36258435862867   -0.30320197576747    5.25718876148998
C         0.87102450161039   -1.43772853400687    5.89992824102799
C        -0.33300180505237   -1.98558531882167    5.49463859302451
C        -1.02400890337239   -1.37710389699712    4.45833932105022
C        -0.46894819012307   -0.26000253620739    3.85938956830391
C         2.25630580669997   -0.69655202115176    1.59863687608910
C         2.95463581085838   -1.71436165397215    0.96788113829537
C         4.33381280601247   -1.72448088432934    1.00905976458937
C         4.97586509396409   -0.68652548573660    1.69690841387800
C         4.18839337806987    0.29826583611683    2.30154577191631
C         7.38384815964743   -1.05766544417217    1.49983373947976
H         4.19746272120671    3.07489029193561    4.73389759153801
H         5.66239022534540    2.44280248102725    6.61940386810824
H         5.12364892113016    0.37287966211385    7.91832415092886
H         3.12984334389349   -0.92850311008734    7.29106064523222
H         1.41599590211998   -1.88967649696996    6.71128187652403
H        -0.72605072264449   -2.86219979035967    5.98453381471859
H        -1.97373525000496   -1.75571754535812    4.11864890044601
H        -0.98713089459762    0.24186558642613    3.05235497549871
H         1.17556341587847   -0.67667594622462    1.55943384140195
H         2.41469254444693   -2.48631049734134    0.44367050109541
H         4.91194669725718   -2.49562865278615    0.52453728298623
H         4.68076711473106    1.11140731254591    2.81904007760347

