33
CSD_code = RITLOV | q = 0 | S = 0 | Stoichiometry = C12H14N2O4Pd | MND = 4
Pd        2.50182726332382    5.00291288764391    3.40037184028696
O         3.20333767678889    5.03317195116531    1.52161460701980
O         4.18427941540325    5.83385486015018    4.06131215797503
O         4.20905317537326    6.32929039223738    0.04544992949197
O         5.63208839480781    7.45202112663916    3.65005400529251
N         1.73991295096234    4.73464565486829    5.35924333302166
H         2.22171930743537    3.89072052150886    5.68096111779414
H         1.95901909456047    5.48620730578262    6.01112979960912
N         0.85056323809589    4.01671243941788    2.91952220639155
C         0.29604828162349    4.50784461690916    5.22730089227871
H        -0.20515286098513    5.48382938951124    5.19867311510032
H        -0.11571419099934    3.94051995558225    6.07338023218403
C        -0.00370244404246    3.79014592635114    3.92910428340787
C        -1.11106998313319    2.97131147772579    3.77291765993451
H        -1.78166291404438    2.80634877122322    4.60181571109726
C        -1.34038585968582    2.37226837745530    2.54281032802537
H        -2.19600187199597    1.73123088234802    2.39947019315560
C        -0.44678948771784    2.60925345174449    1.50916714799115
H        -0.58579299134390    2.15984573107455    0.53967772951994
C         0.64006499261205    3.43541960200357    1.73930319913518
H         1.37371261758347    3.65397973197158    0.97116676156689
C         4.62053247119297    6.83963169503777    3.38462233528196
C         3.74337874231434    6.14601276884317    1.14915794708689
C         3.71969438281849    7.27794465055259    2.20145347392526
C         2.28486680797880    7.71119960582777    2.62697124694450
H         1.46793746446588    7.16984491694140    2.11613779238584
H         2.11983851086896    7.71867221718044    3.71830844057871
C         3.98811165753105    8.68349982684610    1.65434701830175
H         4.78830367862293    9.19135675400800    2.18819440355515
H         4.20208785920895    8.68481930530502    0.58792787920682
C         2.56456601190751    9.10992057076062    2.04336909602986
H         1.93008442883513    9.36552272203985    1.19711102771924
H         2.51824417963664    9.91333991333659    2.77605308871695

