95
CSD_code = RITRUJ | q = 0 | S = 0 | Stoichiometry = C33H56ClIrOP2Si | MND = 6
Ir        4.58937827299950    7.15960396004186    3.70866544094242
H         3.86100941236605    8.49243376588326    3.92756755720632
Cl        5.94919833182970    5.17996848805346    3.44580480872742
Si        2.71598911043244    6.40075110509344    2.41771465547501
P         4.01735687151326    6.47140606583988    5.85284526868418
P         5.92791881462223    8.06441201625980    2.06205749454557
O         6.61153646339719    7.67447038178925    4.94311842458981
C         6.70739783258690    7.26408983723835    6.23597154254464
C         5.55088568702471    6.73984880366166    6.83302975736888
C         5.59964000034194    6.38360616218545    8.17513042614760
H         4.72502433962774    5.97422045690029    8.65354658806545
C         6.75742461081107    6.53393916410590    8.91121440673084
H         6.77664945803434    6.26352659765112    9.95617447880908
C         7.89735789863404    7.01282048618187    8.29685508422941
H         8.80347204184896    7.10744121537426    8.87477257936055
C         7.89686004391605    7.37350214424137    6.95696129414865
C         9.17740564166548    7.86717488794336    6.31452522344956
C         9.60962017360346    9.17499803305751    7.00057871691066
H        10.53118428082401    9.55144643580370    6.56457182261863
H         9.77322248099215    9.01638869281008    8.06319695414702
H         8.83803314036272    9.93418864934502    6.88138018561618
C        10.26054323164998    6.78649250533690    6.48027673987183
H         9.94451475023027    5.86836856482696    5.98828884119655
H        10.43846136970877    6.57026738841325    7.52990702984506
H        11.19971873739631    7.10683917811900    6.03821210020407
C         8.97704812144337    8.13189249989134    4.83677872561363
C        10.05110291916083    8.53547466205937    4.05537620287374
H        11.02389672111043    8.65306703940772    4.50702769809933
C         9.90045705514810    8.81066770246950    2.71039332659141
H        10.74622140883539    9.14112477597013    2.12642285158771
C         8.66145442495583    8.66077076727065    2.12065237768819
H         8.53699492064378    8.88999602411860    1.07402761739957
C         7.56806652382614    8.23424953413066    2.86226709283880
C         7.72756682335695    7.99747814034196    4.23385388598431
C         3.57018368384453    4.75460756612207    6.45613756747684
H         3.37538231810148    4.82296303594181    7.53228521689685
C         2.30731216037275    4.26959560106507    5.75689498936377
H         2.47676186279391    4.21791979443888    4.68596633513216
H         1.46805175179144    4.93736159731358    5.94229208678952
H         2.03916085582155    3.27632597207609    6.11589744965192
C         4.71174662662661    3.77032606693764    6.22953849567210
H         4.41020977207075    2.77353201169488    6.54945754541104
H         5.60001608911027    4.05573650520845    6.79107206967091
H         4.97671816869533    3.72734734613989    5.17675496884088
C         2.78679991794917    7.59186392875182    6.74064350547075
H         2.00451563526799    7.73563827465820    5.98655759658526
C         2.12482743861434    7.09463924481916    8.02167655782215
H         2.84415476007822    6.97881543647417    8.82871052459472
H         1.59861530713871    6.15558681794821    7.87480067665468
H         1.39266916996075    7.83516437630435    8.34300786376089
C         3.45338089738419    8.94268947407588    6.99104555916170
H         2.70957809991514    9.68378411383540    7.27859969607763
H         3.95032620357881    9.29145851739700    6.08768266295813
H         4.19132253862447    8.86904312788726    7.78874189836684
C         6.30432496386742    7.13555761557838    0.46278257352682
H         5.39011156949969    6.54204630751526    0.33254420640782
C         6.49744891147964    7.98100796037673   -0.79441058822924
H         7.40661899536270    8.57675104499119   -0.75087724550059
H         5.65504081767330    8.64323343561821   -0.97375990569555
H         6.58585961050677    7.31426354447664   -1.65178243175234
C         7.45487817641444    6.14143299031285    0.61572384065546
H         7.45326486879956    5.45565614152807   -0.23055231722666
H         7.33324242276963    5.55602543585656    1.52301028829045
H         8.42261223594708    6.63582972413234    0.65020863333429
C         5.73342971964290    9.87447260982741    1.59078993662956
H         6.47998669537559   10.11794311131067    0.82800117771626
C         4.33585709559696   10.15405157451980    1.05697038237106
H         3.60255122891111    9.88827137265046    1.81480714890196
H         4.12186358404879    9.57928082345583    0.16117118638563
H         4.23007204442336   11.21161835529395    0.81818422830343
C         5.97935302643076   10.74223935545603    2.82284119218757
H         5.73142226373948   11.77939021466721    2.60220612722743
H         7.01789010855711   10.70310901136948    3.14586767685982
H         5.34379467364706   10.40823354356616    3.64167592061364
C         2.88170075991224    4.50414506890881    1.98828932699613
H         3.36666304227160    4.42564689033511    1.01486993322805
H         3.56318798324568    4.02763304215408    2.68959847554414
C         1.58003316139294    3.71062259764772    1.95566211275683
H         1.08163833355664    3.73546276676651    2.92118311625581
H         1.77933560057936    2.66888565566458    1.70512093946505
H         0.89571347856320    4.11129351339676    1.21354890511808
C         2.45412292693752    7.26546316687578    0.68555305550990
H         2.14461277829788    8.29408644070545    0.85338332958267
H         3.39728849668997    7.31049481559052    0.14287464946960
C         1.41763716973646    6.59033293471333   -0.20501166063175
H         1.72277412702689    5.57926860668637   -0.45802878679199
H         1.29146490564704    7.14623683627665   -1.13425884057995
H         0.45375385036823    6.54524659210417    0.29380905510037
C         0.98504389930937    6.67956774195350    3.27557787051400
H         0.22898311290924    6.11988883391602    2.72788358362963
H         1.00024225840171    6.27604216124236    4.28533397860097
C         0.56018986333813    8.14020634888190    3.34485284807220
H         1.33397120208591    8.73572833562103    3.82141368651507
H        -0.36405959789564    8.24933354690354    3.91179831606365
H         0.39243446228521    8.53837499025420    2.34891360810627

