43
CSD_code = RITRES | q = 0 | S = 0 | Stoichiometry = C18H18N2O4Pt | MND = 4
Pt        9.01359258124296    1.65986017104649   -0.00000000000001
O         7.57859502872126    1.55398977780000    1.39084701646745
C         6.62472821402434    1.49177153914632    3.50852285342907
C         7.78667573626880    1.57407167255790    2.65355701529476
C         6.74108498564799    1.50609796767983    4.87317788212265
H         5.86786260292985    1.44457908894621    5.50356033794519
C         8.00342061758554    1.60157321973539    5.48117123470200
H         8.06853711306946    1.61109069059212    6.55818081492455
C         9.05813043121740    1.67021600552398    3.29882088637442
C        10.28234164388543    1.75790239285278    2.59233054524346
H        11.17778709942586    1.82525171067182    3.21343970438317
C         9.12526406017255    1.68087611411242    4.71508862460024
H        10.09769150396966    1.75454516505224    5.18041625493810
N        10.44098239281594    1.76618096012642    1.30348973534911
O         5.45516947239486    1.40288847273100    2.81917905797455
C        11.79472069094130    1.86412709141900    0.77118271660642
H        12.38777816961324    1.01972349608880    1.14280289448072
H        12.26018039657502    2.78502183190664    1.14285013059917
C         4.25712708538882    1.31889165252010    3.54280453680164
H         3.46665235966096    1.25694703272371    2.79660862917789
H         4.09728232278772    2.20606964597710    4.16613127128429
H         4.22774178228245    0.42445438631280    4.17556155342450
O         7.57859502872125    1.55398977779999   -1.39084701646745
C         6.62472821402435    1.49177153914636   -3.50852285342908
C         7.78667573626880    1.57407167255787   -2.65355701529476
C         6.74108498564801    1.50609796767984   -4.87317788212266
H         5.86786260292985    1.44457908894628   -5.50356033794520
C         8.00342061758556    1.60157321973530   -5.48117123470200
H         8.06853711306947    1.61109069059200   -6.55818081492455
C         9.05813043121741    1.67021600552387   -3.29882088637441
C        10.28234164388545    1.75790239285265   -2.59233054524345
H        11.17778709942587    1.82525171067163   -3.21343970438318
C         9.12526406017256    1.68087611411225   -4.71508862460024
H        10.09769150396968    1.75454516505200   -5.18041625493810
N        10.44098239281594    1.76618096012635   -1.30348973534911
O         5.45516947239485    1.40288847273115   -2.81917905797455
C        11.79472069094132    1.86412709141899   -0.77118271660643
H        12.38777816961330    1.01972349608883   -1.14280289448072
H        12.26018039657496    2.78502183190667   -1.14285013059919
C         4.25712708538881    1.31889165252036   -3.54280453680164
H         3.46665235966094    1.25694703272407   -2.79660862917789
H         4.09728232278781    2.20606964597737   -4.16613127128431
H         4.22774178228235    0.42445438631307   -4.17556155342450

