67
CSD_code = RITRAQ | q = 0 | S = 0 | Stoichiometry = C20H36B2N8Zn | MND = 4
Zn       -4.93059149802111   -3.21309118883519   -1.57425200188496
N        -4.28371046845606   -6.21551504527136   -3.66531721586095
N        -6.46833461955806   -6.18271941410652   -3.18290342422411
N        -5.80717315516709   -6.84346468205448   -5.34341071354521
N        -3.75891215452263   -6.95555423432140   -1.30901792960697
N        -5.94392968870541   -6.94338256178260   -0.82493084656113
N        -4.58271799620683   -8.57496138394995    0.17793434531081
N        -5.35549814537612   -2.84588601427498   -3.44018196734028
H        -5.48279229781417   -3.68810021917433   -3.99078673071691
N        -6.08639856959365   -3.93940652703906   -6.80016267103681
B        -4.20857010608383   -5.74753394731319   -2.18858474529416
H        -3.33587186421525   -4.89762442460550   -2.10816935255879
B        -5.89750731935114   -5.73149757140119   -1.81032575142751
H        -6.63312548806925   -4.87000290667072   -1.35925985242206
C        -5.52599611070208   -6.39212115912924   -4.09478890524038
C        -3.16244186891689   -6.26348060589307   -4.56988322394634
H        -2.95953894232975   -5.25560018184396   -4.96052103316160
H        -2.28265371351024   -6.58386083253621   -4.00598966729962
C        -3.44338833211561   -7.21548979983407   -5.72574172808900
H        -2.64437837769570   -7.16963677399873   -6.46560988206656
H        -3.51294154852619   -8.23793678960390   -5.34685176143392
C        -4.77013203484578   -6.82018071150066   -6.35615826261709
H        -5.05280766154580   -7.53264886807027   -7.13751549475853
H        -4.70925523457882   -5.82112246124125   -6.80712896120476
C        -7.16861619796083   -6.78062388820680   -5.83753730249090
H        -7.37053239200912   -5.78303960612193   -6.24922609291650
H        -7.26250191140012   -7.51158461093055   -6.64707642368327
C        -8.13192350397459   -7.10758101463562   -4.70691091218119
H        -9.16227491566677   -7.01718906789310   -5.05076989904063
H        -7.96275140350927   -8.13289896314641   -4.36939079573528
C        -7.86028973407381   -6.14463342206446   -3.55793727277737
H        -8.46129018945533   -6.40487052846936   -2.68350284036852
H        -8.13656822637526   -5.12303055452164   -3.85801709602203
C        -4.76028864551637   -7.50530215229660   -0.64276069913911
C        -2.41578772907740   -7.44652159523408   -1.15931880424642
H        -2.20598483460213   -8.24058565611216   -1.89190833190116
H        -1.73313436428364   -6.61592052164243   -1.35642302785121
C        -2.21718968424565   -7.98997996301794    0.25266896460995
H        -1.21523514221205   -8.39953573520594    0.37882330721595
H        -2.36093554216423   -7.17948743946004    0.96961970099329
C        -3.26075679553609   -9.07153192610908    0.49424558212783
H        -3.25186005005347   -9.38079017257552    1.54546722678224
H        -3.03578117886414   -9.95645717966454   -0.11979147075862
C        -5.69451902746323   -9.21668702710506    0.84473920660812
H        -5.50956879330712  -10.29740355306149    0.85736400527421
H        -5.75582005032652   -8.87288273233899    1.88848327387923
C        -6.99755755280408   -8.91014258126438    0.12025079243879
H        -6.99655485431073   -9.39645251192589   -0.85712392673989
H        -7.84329515583130   -9.28279905257871    0.69791631429675
C        -7.08535608971970   -7.40000963744319   -0.07611929935899
H        -7.12974203752551   -6.90066400225786    0.90378361889544
H        -7.98796263021361   -7.13001212225396   -0.62609499432041
C        -4.46651680407669   -2.77896897546319    0.35157093135124
H        -3.56885493821341   -2.16192579883775    0.42365823242495
H        -5.26079312907688   -2.21116725840204    0.83938978519342
C        -4.23218220018333   -4.06003770864384    1.15201709371304
H        -3.98713486025135   -3.82544858680568    2.19105289610906
H        -5.11805168801605   -4.69014672284116    1.14176996312498
H        -3.41295263338523   -4.63549804209856    0.72820447747403
C        -5.50885851192645   -1.74846652531153   -4.18282879527961
C        -5.36926880262175   -0.42697112181235   -3.48002853081006
H        -4.92086979634823   -0.57566863017860   -2.49677004272272
H        -4.75087357377485    0.25596666671244   -4.05912766233045
H        -6.34985459697388    0.03057866549383   -3.35066864087487
C        -5.79803581919986   -1.76289635446850   -5.52622761315037
H        -5.91372147905925   -0.84232038574954   -6.07812248870632
C        -5.95708533852520   -2.94129369962669   -6.22708463211115

