97
CSD_code = RITSEU | q = 0 | S = 0 | Stoichiometry = C39H52ClIrOP2Si | MND = 6
Ir       -2.41103334728797   16.21467663144638    9.51503543968810
H        -3.91795064717628   16.02990641548830    9.92531773197700
H        -0.91065347707705   16.31245892682304    9.06410038931496
Cl       -0.48910314581387   18.20532339289062   12.00992639776274
P        -3.13289347327588   16.92947768525974    7.47831612706566
P        -1.87332647637523   14.80050834068792   11.22008789827220
Si       -2.06843140099942   18.27887839876485   10.61583442374006
O        -2.42982937918882   14.17859499816249    8.36315111164142
C        -1.40861816950620   19.72412740610306    9.51709040803969
C        -0.18544087896309   19.59470925757465    8.86582107674419
H         0.38155929786834   18.68546093631990    8.99591393676428
C         0.31124327110815   20.60586846081588    8.06302378019868
H         1.26527210868636   20.48515419534115    7.56902960649421
C        -0.41426368523242   21.77297970315053    7.89131059378662
H        -0.03135873102577   22.56486705253709    7.26315437525588
C        -1.63057367120446   21.92094069751658    8.53558650698692
H        -2.19983767361067   22.83192440776807    8.41300908192654
C        -2.11957674945692   20.90571917352899    9.33973385089164
H        -3.06548284203308   21.03760744686045    9.84458164206139
C        -3.42777847299392   19.11632800786720   11.70261681921904
C        -3.10668296485111   20.22062832210525   12.48657298056388
H        -2.09031483864527   20.58499804687495   12.49419781972810
C        -4.06568474340016   20.85343925406171   13.25675284233239
H        -3.79459489250995   21.71007137029060   13.85741431862209
C        -5.37123055868046   20.39190150508006   13.25884474587052
H        -6.12209535452973   20.88531541578731   13.85962509396805
C        -5.70717358050987   19.29183149551998   12.48871848453383
H        -6.72316357681442   18.92191533774507   12.48757687899925
C        -4.74206984797528   18.66462075096112   11.72092136974104
H        -5.00726322574051   17.80245603155763   11.12836504980341
C        -3.00151809102043   14.14816870689600    7.12446906600184
C        -3.45034701827750   15.35889278604536    6.58108027482538
C        -4.10152972354395   15.33201042850625    5.35332138358058
H        -4.47314766009110   16.24862958432359    4.92391754543543
C        -4.29855394544913   14.14105205623399    4.68399405292422
H        -4.82124117673917   14.13073390676852    3.73944532832346
C        -3.80169259690172   12.96130802513628    5.20896801328857
H        -3.93639679759494   12.04872582987763    4.65272323802460
C        -3.13288327344137   12.94676409418107    6.42268984412322
C        -2.43437605801408   11.72000765021633    6.97404335915429
C        -0.94696636067848   11.82644876918403    6.57045171906953
H        -0.50364910411250   12.74427968345472    6.95239610314406
H        -0.85256734195538   11.82606713737511    5.48629955614692
H        -0.38891836163846   10.98368408902525    6.97355274367300
C        -3.00314982755778   10.41615739829649    6.41431674795452
H        -2.44661215416620    9.56553121686931    6.79773447984700
H        -2.90549248581193   10.39376570979368    5.33252378268831
H        -4.05229996748267   10.30396373448531    6.67943237086063
C        -2.48824061370293   11.77897148536548    8.48768199761620
C        -2.37551868240308   13.02955298381896    9.10031488711129
C        -2.20321503498589   13.14858355411447   10.48531037559852
C        -2.23472591159956   11.99184363249780   11.25507858570046
H        -2.12462271648500   12.05687802453620   12.32565367374058
C        -2.42664020293534   10.75684399670059   10.66848441962025
H        -2.46954116604922    9.86809834156279   11.27984924526626
C        -2.53108837875805   10.65175648683411    9.29309461768492
H        -2.63908477062446    9.67423175841236    8.85361690244067
C        -1.93554159736278   17.80865469412375    6.32530365583651
H        -1.51480792065461   18.59538791176232    6.96589069542042
C        -2.49110465994403   18.46037000739705    5.06393275581812
H        -1.67353581758830   18.95713388272705    4.54230002839006
H        -3.24038620380553   19.21400634724347    5.29102589817767
H        -2.91389633061728   17.72272005996731    4.38537642516069
C        -0.81181894640332   16.83887157300741    5.97017954824444
H        -1.16186086088939   16.07366898567507    5.27690102288611
H        -0.44026067472971   16.35332499241525    6.87054371842236
H         0.01622919210131   17.37209386908142    5.50662748513034
C        -4.74708733322270   17.82952233257960    7.20577508611935
H        -4.88149161424236   17.98897924789709    6.13097193701971
C        -5.91579640132213   17.00774231935146    7.73383743292591
H        -5.74866848028426   16.75286612980385    8.77761657816615
H        -6.03762877449972   16.08375188808067    7.17016998068293
H        -6.83946256460111   17.57992508153951    7.66312404492596
C        -4.67397586898888   19.17948708529885    7.90918466520338
H        -5.57118825874836   19.76350667052020    7.70679543914743
H        -3.80639385867354   19.75004243812302    7.58125496190447
H        -4.59195604258534   19.03199049473854    8.98369318675540
C        -2.82317605336521   14.68706096166181   12.82298246404054
H        -2.40194014051071   13.86430387981799   13.41021365720601
C        -4.29527731861656   14.40195501765122   12.55420303306109
H        -4.85334322901585   14.40553526904237   13.48918244334721
H        -4.43248490818733   13.43451346206605   12.07257971260934
H        -4.70813346667209   15.17092530755712   11.90591758392763
C        -2.66205690442135   15.98795585744525   13.60134070314978
H        -3.16810672735362   16.79859257076794   13.08210919691715
H        -1.61503560727717   16.26384660653494   13.70805995874267
H        -3.10040490595764   15.88987888014577   14.59385556322484
C        -0.07690146461491   14.62918863237056   11.74040274508201
H         0.22972194627900   15.66870740668485   11.91293560094878
C         0.72070180452556   14.08495559329020   10.55792497095156
H         1.78821362365490   14.19344800690260   10.74074064346649
H         0.47542170722296   14.63915706719589    9.65396136388549
H         0.50448846124918   13.02872341215037   10.39325721603407
C         0.22167165361587   13.81800913575315   12.99618719599931
H        -0.07136011233140   12.77660724351554   12.87809413111708
H        -0.26549048284254   14.23460187508655   13.87336673434448
H         1.29609569093280   13.83954766732672   13.17530543968206

