93
CSD_code = RITSIY | q = 0 | S = 0 | Stoichiometry = C33H55OP2RhSi | MND = 4
Rh        7.02945124924139    0.64216809000459   20.14975753383472
Si        7.47744207395915    2.51558453465462   18.82832350770837
P         7.88658064266654    1.33749996874519   22.10540843666844
P         6.32191641803283   -0.81622797443090   18.59177509892962
O         6.27590572826210   -1.07116177853028   21.53153837491913
C         9.70194565897759    1.62838812615642   22.42779539833357
H         9.92209272635888    1.56539188615438   23.49763321506157
C        10.16463861227787    2.98217116749255   21.91100499980965
H         9.95407563709530    3.06218906539491   20.84800269041607
H        11.23842082152349    3.09247015957704   22.06095419315292
H         9.66450094296267    3.79597454820573   22.43252575271887
C        10.41396161343496    0.49808483557427   21.68870235618109
H        11.49506018261044    0.61894863502491   21.73172775006134
H        10.10035828140101    0.50471098715799   20.64182693506182
H        10.15571365556024   -0.46862193021504   22.12115370263660
C         6.94644799845232    2.66645120075181   23.03102862141951
H         7.18355468179714    3.58779973809751   22.49019243242903
C         7.24755694810826    2.87446753248884   24.50893980097573
H         6.95247790394100    2.00694985090934   25.09566342288328
H         6.68578536239369    3.73359680659331   24.87501905627067
H         8.30477967366229    3.07104922233297   24.67430380850351
C         5.47035216362742    2.34657387551717   22.79741690521832
H         4.83520740881832    3.18252347563690   23.08546459248275
H         5.17328856039149    1.47345667577804   23.37941188659830
H         5.30808836466672    2.13281661059773   21.73352680584415
C         7.59737534316206   -0.09249491002210   23.24388469184955
C         8.14533012743717   -0.18920886819182   24.51731786350825
H         8.83405006576771    0.56171479096348   24.86841178145444
C         7.83772679874980   -1.25009326118570   25.34689277118917
H         8.28837015175851   -1.31788099256835   26.32577511187557
C         6.92951515776436   -2.20992473957334   24.93946574283940
H         6.67287879263100   -3.00874037020194   25.61519731651849
C         6.35221766072931   -2.14415490034987   23.68152051351027
C         6.73246083024927   -1.10947813733422   22.82402068769319
C         5.26660755738103   -3.08439612407425   23.20138173077293
C         3.92125943349303   -2.33321676072172   23.30108370611935
H         3.11506682399384   -2.95988446288672   22.92473965598373
H         3.94061365441991   -1.41439971398365   22.71852759526195
H         3.71283905554331   -2.07754197563153   24.33819882360049
C         5.17352962756668   -4.36270249522358   24.03198470969837
H         6.10468661366402   -4.92381308318572   23.99073772230737
H         4.36422033141835   -4.98956101832533   23.66653004410454
H         4.94874068050969   -4.12232033383476   25.06792164723670
C         5.53456418585679   -3.34999633237763   21.73501916649840
C         5.33072864678983   -4.57454189568589   21.11903656762881
H         5.03990348701028   -5.43429413352546   21.69948814537391
C         5.49526344775053   -4.70992153305795   19.75257296134702
H         5.34984133461244   -5.67336472055845   19.28711896331891
C         5.81071097233916   -3.60951431348196   18.97881860612977
H         5.90781614211046   -3.73229365254360   17.91243614099791
C         6.02539707882779   -2.36535223960236   19.55860998337235
C         5.93753790642275   -2.26718747645064   20.95136233821140
C         4.63222590027547   -0.64806933311567   17.79471079399090
H         4.70638645005049    0.28201875574078   17.22171464772687
C         3.64824683240912   -0.42451505166578   18.94268345824520
H         3.44423138360123   -1.36256681757610   19.45923425540474
H         2.70536499664222   -0.02034012128983   18.57834520594038
H         4.07256567091373    0.28048327187687   19.66423970343484
C         4.14831144416430   -1.75325049370892   16.86543524497857
H         3.21224831993153   -1.44621735947556   16.39913219620642
H         3.95941731345119   -2.67278229704053   17.41483921140888
H         4.86627993744828   -1.95324481610506   16.07329831335238
C         7.46848228361437   -1.48503750140178   17.28234872430290
H         7.08243163179198   -2.41722685583025   16.85906194137992
C         8.78316059227399   -1.75458486284293   18.01039818783524
H         9.06881119461615   -0.86067852553220   18.57345299680877
H         9.57938989110328   -1.99674171886870   17.30862586717442
H         8.67507163912994   -2.58195020897807   18.71134612116868
C         7.66786304444961   -0.47463933728453   16.16271272742986
H         8.38546943478065   -0.85342209082791   15.43526983596750
H         8.04737500385903    0.45555774761762   16.57470193226913
H         6.73252356522729   -0.27218128864248   15.64398470434256
C         6.20255297756604    2.78506376899592   17.37887723515781
H         6.53159308503472    3.59539817891581   16.73018647882292
H         6.15828727610620    1.89268113007068   16.75694859994004
C         4.80692190465239    3.10076577384116   17.89577087359892
H         4.79048559164497    4.07322028387376   18.38038001139009
H         4.49960413357091    2.35804905535667   18.62909510199844
H         4.07354546600292    3.11510363967351   17.08785790210104
C         9.26571276339756    2.56318240379931   18.01867005516569
H         9.91027111032704    3.17372852127811   18.65138187291445
H         9.70025628862077    1.56279089300935   18.02456936006752
C         9.33107014288243    3.11113435990406   16.59967936181907
H         8.96929240011609    4.13506544827606   16.56221482771942
H         8.72445715710986    2.51544738117841   15.92184741486719
H        10.35722981104589    3.10294639381344   16.22867057132702
C         7.33941044912828    4.22473125627664   19.76807510666266
H         6.34833743479738    4.30437596651895   20.21535436715523
H         8.05085327581690    4.23762620376845   20.59114971581188
C         7.59210543571622    5.45351882380301   18.90582073745510
H         6.89084914601862    5.50114193219227   18.07693954498668
H         8.60120014222220    5.43546869297153   18.50152453540096
H         7.48235226031595    6.36855714138776   19.49079798974090

