66
CSD_code = RITSAR | q = 0 | S = 0 | Stoichiometry = C25H38ClNZr | MND = 12
Zr        1.55078482291838    1.86067874418763    3.59456412189985
C         1.12524770746798    3.24453396490520    1.54628465138765
C         1.98396357863064    2.17755815914246    1.17912747012512
H         1.77087662495513    1.44910165265127    0.40483934106859
C         3.23791694625489    2.38460162735569    1.80996446593233
H         4.15072873879700    1.83927807397678    1.60617925452358
C         3.15105774547345    3.56580423790648    2.56648750664399
H         3.96337496409027    4.04043980918087    3.10298097208591
C         1.84857167696728    4.08990176924689    2.41803067644488
H         1.49932371599413    5.03439663108023    2.81967984802446
C        -0.23341625469912    3.51880190363277    0.96095887706442
H        -0.11651422551264    3.62623597214283   -0.12366630604462
H        -0.58458766397703    4.47917792066896    1.34180618442894
C        -1.28296094588118    2.41941936558480    1.22611127698127
H        -0.76071931118388    1.48219346094132    1.45491678032403
H        -1.87141139399101    2.26470328996637    0.31825323429536
C        -2.28022902605442    2.71491420025699    2.37240257597445
C        -3.11122280618340    3.94219962274040    1.98900415431718
H        -3.52839367873081    3.78775729788764    0.99418447403411
H        -2.51186696610892    4.84694036804609    1.96107112613197
H        -3.94178964602712    4.10281218559627    2.66764249310207
C        -3.21855205016625    1.50010446119208    2.47216491826602
H        -3.70218000862032    1.32259038003278    1.51246927468533
H        -3.99309409443057    1.65789647956672    3.21582077908161
H        -2.65498563844087    0.60916584492970    2.74263036851686
C        -1.48009681902093    2.79750396533756    3.69895170726825
C        -2.00136932699026    3.51529447338955    4.96737696292485
N        -0.37445562399918    2.22151952988787    3.75337682606848
C        -1.69297389158148    5.01127425241398    4.81608567347291
H        -1.85956550495741    5.51937782014371    5.76429552892424
H        -2.32241708464659    5.48114913005244    4.06659685053625
H        -0.64705004351023    5.14058271565559    4.53678844717756
C        -3.48039603562107    3.29753077196445    5.29589200115427
H        -3.69247860290296    2.23719919100146    5.41556128173423
H        -4.14837781391147    3.70858534494719    4.54673277008781
H        -3.70770313173868    3.79121041708433    6.24000445544818
C        -1.19368386017023    2.99068416895895    6.16573408186572
H        -0.12821787953920    3.16416942170258    6.01345572731524
H        -1.35797362913242    1.92203441771062    6.29425411412469
H        -1.50493047889205    3.50193256392947    7.07461341348296
C         0.71004919969513   -0.36417057466964    4.43837285445063
C         1.14983002141968   -0.58913633043934    3.10415942590194
C         2.55568087233626   -0.37847976826319    3.05729139327618
C         2.97704082340057    0.03665175312410    4.35307320748707
C         1.83689514947644    0.02908576758658    5.20859963818869
C        -0.65889111337676   -0.68998207140412    4.97298976777601
H        -0.97712903259916   -1.67028658121794    4.61486267873642
H        -1.40238044577185    0.04564775724823    4.65887039192819
H        -0.63995564723370   -0.71684769536838    6.06024624476252
C         0.32302569986374   -1.18972742062447    2.00037969551849
H         0.64184182475360   -0.83153814319775    1.02116431734532
H        -0.73187712112163   -0.95302444508637    2.13135104026822
H         0.42387674887265   -2.27866148536927    1.99902560343005
C         3.43622080875571   -0.85488072872196    1.93219481577580
H         3.41318564265226   -1.94736268776009    1.89689327164910
H         4.47257240724713   -0.55638180273785    2.07790429858715
H         3.10467753524915   -0.49300772061723    0.95856307232507
C         4.38408515010456    0.34719594617392    4.79372235551857
H         4.41585806324793    1.28515198497152    5.35534571687180
H         5.05608034656949    0.43613929603688    3.94004083177137
H         4.76964006385487   -0.44399669430032    5.44117386085220
C         1.84197713818734    0.24080422486458    6.69820501730374
H         1.00257102049318    0.86455230724380    7.00987057107530
H         2.76060447155944    0.72920774895441    7.01607836281889
H         1.76997495420449   -0.71965014565539    7.21594415811258
Cl        2.33751233323534    3.12084190222181    5.45604904739106

