41
CSD_code = RITVUN | q = 0 | S = 0 | Stoichiometry = C22H15N3Pt | MND = 4
Pt       12.17570298521824    5.63626751350904    5.10440711064737
N        13.57796916089135    6.44056811815770    6.18791653288842
N        12.33437037779334    5.77490873467960    7.97436993258681
N        11.46319138286854    5.27059713701544    7.08080881144426
C        13.33881017350596    6.26310416553822    3.61101105478827
C        13.19784650542553    6.16192036478038    2.22972283351511
H        12.32676166488960    5.66835711540304    1.82378848864219
C        14.15223450470898    6.68169047495798    1.36892144201736
H        14.01803773460518    6.58953762980578    0.30057577173266
C        15.27934421568360    7.31977575528324    1.86502042063879
H        16.01905365833393    7.72209773101624    1.18814446638385
C        15.45485315847668    7.44038900112200    3.22874073001687
H        16.33378346324995    7.93808702265097    3.61340817150498
C        14.50101600641580    6.92147068969043    4.10298611004954
C        14.61744750227088    7.01152382144032    5.55315340978541
C        15.63345925150449    7.59382315928744    6.30959937366078
H        16.47715481860379    8.05764475029523    5.82652766015331
C        15.54904572042887    7.57161878929718    7.69307739078920
H        16.32913687498408    8.01954273395104    8.28901535659211
C        14.46427671657203    6.97563326616919    8.32525059932490
H        14.38905389624361    6.95328945036191    9.39936788690967
C        13.48870919638564    6.41419744897169    7.51354300547960
C        11.90013074487718    5.55242186671061    9.23695849507594
H        12.44889726707130    5.87515716189451   10.09743237495879
C        10.70645165849389    4.88077304837268    9.14067929827935
H        10.08434315061849    4.54502735684832    9.94387029868345
C        10.47721240913950    4.72866897327414    7.76605901278199
H         9.65634462044581    4.25925115637749    7.26045117231797
C        10.76159176513032    4.82618167779775    4.02933768080117
C         9.83981221780874    4.30298487730531    3.43060548663940
C         8.76931549025268    3.69614829401143    2.73249171341413
C         8.84561597436073    2.35699547658293    2.34249417086416
H         9.73607243326656    1.79106187630028    2.57629378742726
C         7.79537861351012    1.76843812200484    1.66600731356001
H         7.86288604764189    0.73140866712274    1.36730172902064
C         6.65644001622119    2.49993267386823    1.36797270737675
H         5.83673231377600    2.03586644367654    0.83838856517159
C         6.57345593596806    3.82934506138126    1.75116760177928
H         5.68642215248161    4.40254646006353    1.51918311668647
C         7.61818198866093    4.42670606802329    2.42840599228523
H         7.55875623122514    5.46323986499252    2.72834292332426

