44
CSD_code = RITXEX | q = 0 | S = 0 | Stoichiometry = C15H21F3O3RuS | MND = 10
Ru        1.65692674695615    0.39059226809889    2.75852962728289
C         3.14940927547881    2.01005889292475    2.50324596573900
C         1.98707877059712    2.37532915962431    1.73324076262447
C         0.89152013574761    2.48121376760031    2.62398027877982
C         1.37572863195187    2.21859213115058    3.96986690075688
C         2.76969644892715    1.96870191636017    3.89381955219803
C         4.55975583221463    2.03151137747612    1.99573322300398
C         1.97904646300161    2.71158959178107    0.27506207533802
C        -0.49622316252406    2.94145360302564    2.31571986126573
C         0.56686219901461    2.42501392676667    5.20923593984068
C         3.70205458483239    1.83534167990923    5.05609079656830
C         2.17524974738330   -1.51066438707463    3.79604853493399
C         3.09416164392531   -1.24314283916800    2.77834394579026
C         2.64689815558621   -1.03110427621341    1.43293448738110
C         1.28816183197484   -1.08269817839529    1.11860912544313
S        -1.29693707880783   -1.15168058091459    3.61741480644492
O        -0.44188677404456   -0.01082506583092    3.24545706286242
O        -0.73081589040175   -2.43043807871556    3.28672199384811
O        -2.67310905007270   -0.92704585006823    3.31266219918013
C        -1.20270934520572   -1.03108799953477    5.48275487639272
F        -1.72430588210660   -2.07853540077530    6.11298186404682
F        -1.84419674096834    0.06563953942421    5.89225935155801
F         0.07269378817027   -0.90890968974433    5.87675533748719
H         4.94741582850110    3.05046344061976    2.05097510117433
H         4.61415830317948    1.70800350400624    0.95845127289014
H         5.20729236666615    1.39320470848401    2.59327531400793
H         2.16953682858438    3.77867921571355    0.14547819074952
H         1.01587534746060    2.47886282563715   -0.17207714670631
H         2.74919538862821    2.16315178166746   -0.26211826869884
H        -0.72927468030453    3.83344262059975    2.89792721558957
H        -1.21037227627612    2.16094028135493    2.58548803962049
H        -0.61068549927724    3.16941161381417    1.25928641359519
H         0.56942103634919    3.48297584179371    5.48020366458245
H         0.97284756764379    1.85527707934545    6.04176857120690
H        -0.46272417318262    2.11430075853130    5.04443539187424
H         4.01054888003074    2.82784094852338    5.38952503120692
H         4.59459556838023    1.27450014991513    4.78916792629459
H         3.21313909595995    1.33457583980693    5.88821726663719
H         2.55209235025665   -1.53503773460616    4.81214171792348
H         1.32242643443598   -2.16121448709292    3.62314750104603
H         4.15228760204072   -1.09960671961726    2.99930546393688
H         3.38202238766052   -0.72872767904398    0.68664615822580
H         0.62984734361734   -1.81670004790763    1.57762546588948
H         0.99629396817716   -0.78904944731127    0.11626114013919

