55
CSD_code = RITYEY | q = 0 | S = 0 | Stoichiometry = C19H28NO2PSSi2W | MND = 9
W         5.65288712963628    1.16054856872800    2.85255473100773
C         7.06679160076693   -0.01859328665857    2.18378621374016
O         7.89472833744044   -0.75347974792062    1.85386678192273
C         6.94925137780214    0.70651071198813    4.24559017783628
O         7.75993681270807    0.40371383538636    5.01705071461910
C         3.63395300199093    1.28690244604841    1.67313048277377
C         3.51653587119950    2.04405748060709    2.86441355344502
C         3.62636314544730    1.15701992673275    3.95914798881592
C         3.84562570303153   -0.15663477963193    3.43958574637882
C         3.83289278930375   -0.06185832846337    2.02099713776603
S         6.56294557047346    2.81369711137166    0.98371607249746
P         6.69286797051212    3.33110048289393    2.92857133468139
C         8.45626359956025    3.67237527178552    3.22954003506112
C         8.90761233991322    4.89185666371212    3.71279722544855
C        10.26145686051474    5.08953346253743    3.92129041557430
C        11.16221443360821    4.07318090645380    3.65065477832267
C        10.71118656452445    2.85549536638723    3.16330370591089
C         9.36092217312607    2.65212603626532    2.95387392901944
N         5.88718043261488    4.75497868297950    3.29613628084916
Si        5.56485789701947    5.88669710009672    1.96814449176917
C         5.03444337760348    7.56795247909672    2.68304301060523
C         7.15992560530178    6.16770093002852    0.96754375631239
C         4.10531082480118    5.24553247798504    0.91807054759006
Si        5.44031768862879    4.93201189142959    5.00239435607012
C         6.26875674462191    6.46668707310565    5.77406371613966
C         3.53654690557245    5.06033747424750    5.11188939796326
C         6.06895158105884    3.41994562837895    5.96247508976459
H         3.49416333055529    1.66311014727668    0.66793817967963
H         3.23868243767585    3.08761196766474    2.91680024446943
H         3.41838644846261    1.38935494538146    4.99663704934847
H         3.80891008820642   -1.07563972473520    4.01284819497012
H         3.86183111754696   -0.89656594100839    1.33392746068590
H         8.19671208002934    5.67799472186642    3.91583626802870
H        10.61400145126330    6.03961470457639    4.29622017797493
H        12.21768344373808    4.22916171770635    3.81758079973732
H        11.41291053101265    2.06374030135278    2.94885628583017
H         8.99373192140544    1.70830081407084    2.56789524944445
H         4.33772736071312    7.48761729253475    3.50746899483145
H         4.55111778736609    8.13340116890414    1.89518481904167
H         5.88396352848982    8.15190917404691    3.01626488843870
H         7.63341574063609    5.22822547604404    0.69926734613906
H         7.88612817285533    6.75708148587304    1.52098949685604
H         6.94165470947958    6.69804076291112    0.04585284234295
H         3.93978455788054    5.90415973276146    0.07080409022088
H         3.17835092891212    5.21020076070201    1.48568765790704
H         4.30289666721326    4.25341472965495    0.52497848203174
H         5.71143160585461    6.76301801133250    6.65627739041819
H         6.29718982469113    7.31804658367537    5.10548361373483
H         7.28513422761132    6.25535441757446    6.09259334258909
H         3.25646732061712    5.61140295822777    6.00340995550632
H         3.06517064033750    4.08443002122563    5.17850452658385
H         3.11005872344192    5.57772317604220    4.25834819697350
H         5.89235313674441    3.53359461938511    7.02793915075240
H         7.13910926642070    3.28793580901270    5.81958926940687
H         5.58750661205785    2.49986430036378    5.63988435417015

