45
CSD_code = RITYID | q = 1 | S = 0 | Stoichiometry = C20H16AgN4S4(1+) | MND = 2
Ag       -2.48900473215903    3.70165990330024    8.28138291794106
S         0.77560652882952    3.90984061648436    3.90252235796514
S        -0.89423576477890    3.64644457001282   14.83160441674900
N        -0.31917753318947    3.69691526591917    8.70925327102956
N         0.05180854468227    3.46003265203813    9.99906840943881
C         0.62062174461199    3.56739570047292    7.83566848309821
H         1.60908546160519    3.25024677868477    8.16251738344390
C         0.42527907855575    3.85575796005504    6.44729347480361
C        -0.63019469425904    4.65794825476639    5.91050666369665
H        -1.35336264740856    5.18767253951511    6.52161612537328
C        -0.55859853467918    4.77772569969038    4.56414866868715
H        -1.20056961316265    5.33957154481070    3.91489955948426
C         1.26574236226562    3.40729868624851    5.45211109373961
H         2.12924596987307    2.78194241780405    5.56691180451135
C        -0.79000385328467    3.79258967010521   10.89478056518644
H        -1.75528160122652    4.27302983569113   10.59491271765361
C        -0.56132678351189    3.60658274320430   12.28805853517978
C        -1.44241646153801    4.01767118691417   13.26592850729459
H        -2.37656688266770    4.52687029775581   13.12772009189712
C         0.54305512215264    2.92794306652429   14.19953721684023
H         1.26207844280264    2.51365944580084   14.87739839267443
C         0.59019837033679    2.97686290304532   12.85087387096839
H         1.39042084791903    2.59083752026214   12.24872170731088
S        -5.75366932092821    3.49315573305065   12.65952557047518
S        -4.08461280301529    3.75613010584071    1.73035292154031
N        -4.65889238596763    3.70578385381167    7.85281467421129
N        -5.02971856141446    3.94318792143171    6.56297970123774
C        -5.59881124910210    3.83485488147813    8.72632748023995
H        -6.58708692892965    4.15269521553557    8.39954559236947
C        -5.40320304215771    3.54720903926568   10.11477427674750
C        -4.34693557538380    2.74622415173395   10.65169758777917
H        -3.62367611914542    2.21656160901368   10.04069337204383
C        -4.41885271746406    2.62612951297865   11.99804354897017
H        -3.77690729728568    2.06428549325743   12.64721955949674
C        -6.24364973093976    3.99583708629648   11.10993095755802
H        -7.10752449106372    4.62064376980931   10.99503984120022
C        -4.18828430687691    3.61025346553361    5.66719295870251
H        -3.22205411804921    3.13163654082986    5.96695029194903
C        -4.41688818863587    3.79677227544850    4.27396880636531
C        -3.53527613585924    3.38674666973987    3.29604284175888
H        -2.60103291088873    2.87778377718873    3.43414356122524
C        -5.52133365425425    4.47562546026283    2.36268781543231
H        -6.24121245653022    4.88856167270485    1.68480365120414
C        -5.56843194905729    4.42647148724212    3.71123355998345
H        -6.36924942882091    4.81125101844166    4.31349519454462

