37
CSD_code = RIVBON | q = 0 | S = 0 | Stoichiometry = C19H14CrO3 | MND = 9
Cr        2.22258368313654    2.36786863453027    1.28887970697643
O         4.89430638313329    2.16677818142000    2.58075046851097
O         3.42938959660049    4.99666868733401    0.59504946653163
O         1.82878635333403    3.93432074899922    3.78677755016781
C         3.95894322153619    0.69167382562480   -1.68567775293627
C         3.50399923486989   -0.25522051477384   -0.56268177663575
C         2.34117255759804    0.46432709668107    0.05669595099682
C         1.65789976506373    0.15535299635001    1.24663635912759
C         0.52265341836890    0.89887189539591    1.58026311790392
C         0.06226759430284    1.93064718201317    0.73528873125779
C         0.74795826937376    2.23937639139796   -0.44199980904488
C         1.88606083605426    1.48809861495770   -0.78105068640758
C         2.73347654030975    1.58336956453458   -2.02262905922657
C         5.06196922945919    1.67569709191566   -1.24676583228430
C         4.62558667754519    3.00344215381433   -1.78976709691821
C         5.34573617901084    4.17786004129361   -1.86919932486009
C         4.73215324571406    5.30393120058371   -2.39760257943284
C         3.42268468825844    5.25269733227690   -2.84309015024637
C         2.69734122326775    4.07286904222110   -2.76549470010892
C         3.30849298391079    2.95564310317989   -2.23369115497212
C         3.85862978877262    2.19934906833208    2.06204315058772
C         2.94519662882184    3.96788303036727    0.80129321710684
C         1.93602729775287    3.30709193053309    2.82131021765834
H         4.29171011792204    0.13401747676126   -2.56325667122816
H         4.30238728182382   -0.45865251201023    0.15233974440530
H         3.16960443876188   -1.21501482785302   -0.97184393647130
H         1.96447035347380   -0.68848301122639    1.85372539534812
H        -0.05769800238414    0.63176582983910    2.45554339515012
H        -0.86120738643484    2.44364044199326    0.97541382694815
H         0.36253205249765    2.98849172678495   -1.12310784972527
H         2.17148046168070    1.23345237781229   -2.89688838000673
H         5.11672246922188    1.73947662042105   -0.15654907401668
H         6.04449921385273    1.38267694261737   -1.61745945971918
H         6.36643357083408    4.22106055181895   -1.52080611079932
H         5.28146009808034    6.23097920098169   -2.46139063017531
H         2.96039183697885    6.13776262935142   -3.25401769255023
H         1.67839809749641    4.03352925372571   -3.12424057091109

