48
CSD_code = RIVCIJ | q = 0 | S = 0 | Stoichiometry = C22H18MnN3O3S | MND = 6
Mn        7.33161774570300    3.41562444825040    0.45371862966304
S        11.02157743720006    2.39430657654700    3.00086490220077
N         7.22930196116086    1.57746701651350   -0.47909190611612
N         5.97378382957515    2.55099040863637    1.53696804327103
N         8.75607393633035    2.75963709837210    1.47421619995188
O         8.16520297082655    3.96282252295862   -1.01818539928007
O         7.27321797493405    4.90299870740102    1.45769717258233
O         5.49177144272203    4.31068063044552   -0.67127570968278
C         8.95365929203069    3.42629552030875   -1.88868759184414
C         9.82737244953456    4.22470425185247   -2.65749084066562
H         9.83905636065941    5.28748702124169   -2.46508700264389
C        10.65107138544101    3.66338133096022   -3.59884737519079
H        11.32023791075852    4.29176506796345   -4.16774244375128
C        10.63569166517839    2.28340911497943   -3.83061199694655
H        11.28642697733976    1.85900823457987   -4.57936329350942
C         9.80105604676151    1.47916957578214   -3.10053898559366
H         9.78288472003383    0.41252025186124   -3.27377368522060
C         8.94670812696785    2.01270308742772   -2.11694334261086
C         8.10700490538618    1.16374877320935   -1.35727015956091
H         8.22409821773282    0.09565227475558   -1.53546916464458
C         6.38384473757907    0.67945994606961    0.15566898998458
C         6.11414303863433   -0.62913083069814   -0.24713567191897
H         6.53241161872708   -1.02010247654654   -1.16185063779473
C         5.29947074049925   -1.43733607248568    0.52157727015944
H         5.10469746035875   -2.45171830591309    0.20889235827669
C         4.74754111137924   -0.95695332026176    1.70057209465419
H         4.14133088783077   -1.60481944917201    2.31487861760701
C         4.96061118780035    0.35141680063648    2.09045476712858
H         4.53385641314971    0.70100087696469    3.01774403930587
C         5.74079116122838    1.19949640685100    1.30470004065634
C         5.15128862779036    3.22120295276013    2.32111951121175
H         4.26563750716039    2.71123872262313    2.69570289066122
C         5.29167224124222    4.56352134154084    2.71791035253800
C         4.35184365405740    5.14077124352606    3.60176669842072
H         3.54234971216656    4.52166715402238    3.96261277706377
C         4.45342681825088    6.44248541900436    4.00275455043167
H         3.72624411415223    6.86580882612004    4.67842756733895
C         5.51419920949022    7.23656105740731    3.53825799922773
H         5.58882758524279    8.26448682465456    3.86134255627748
C         6.45189188896926    6.72038605982317    2.68896226183507
H         7.27647801781487    7.31875938134736    2.33041348661259
C         6.38257158357940    5.37384273412625    2.24673451534862
C         9.72821852025423    2.65017241183926    2.13350426251360
C         5.10515643911281    3.92244820967485   -1.97707136835811
H         4.20071131432732    4.45809691745056   -2.28124012839979
H         4.89374394367894    2.85427887375006   -1.94074459777908
H         5.90049605397652    4.10579864341898   -2.70624442903105
H         5.64882905527101    5.26468773742310   -0.66779682438484

