37
CSD_code = RIVFOR | q = 0 | S = 0 | Stoichiometry = C12H10Cl2N2O8P2Ru | MND = 6
Ru        8.52763700561863   19.61445188329649    2.33848156764296
Cl        7.11906205618911   20.04259704188053    0.45647183909409
Cl        9.91667390944784   18.69931460828030    4.06386309833646
C         7.55661668479198   20.69514192590976    3.50288588534285
O         6.98322707232031   21.37195173443310    4.21668488740363
C         9.62792772096828   21.08614081565958    2.03798265785146
O        10.29016226051458   21.99762633300131    1.87345511847835
N         9.52864198798363   18.33806986032171    1.12775338907193
N         7.41432097846954   17.94547646673148    2.60340832966177
C        10.58521558940813   18.63204186231387    0.37633911891784
H        10.89645173806440   19.66887587173381    0.35294307338803
C        11.27341252578999   17.67876759051692   -0.35477697952905
H        12.12860158427089   17.93920884440343   -0.95767275364093
C        10.84283814778352   16.36409737416236   -0.29561190474489
C         9.73749699896178   16.05014798519884    0.47214071321938
H         9.40219464471113   15.02744254753255    0.51276104050904
C         9.09280482257566   17.06580432108952    1.17356138647524
C         7.89675958742443   16.84727332506864    1.99372283984535
C         7.27675724727981   15.60780086087863    2.13007545088333
H         7.65863399088515   14.72306176716060    1.64900242003117
C         6.13729902759391   15.51085986078004    2.90598281030052
C         5.63823221835124   16.64773498912630    3.51892868561055
H         4.74609568577325   16.58784979352451    4.12152817980039
C         6.31186944226368   17.84391400304600    3.33938037274591
H         5.94771970876420   18.75155419556657    3.80415383409397
P        11.71044477967394   15.06530222653337   -1.21910579850989
O        12.86700886071774   15.45670251305418   -2.02321259694708
O        12.03861245970634   13.96548281793102   -0.09907932362330
O        10.51451772676824   14.39796030618493   -2.04032208977820
P         5.30503639901656   13.91098391087186    3.10699484864572
O         4.12157400875533   13.85984272508728    3.96389681893804
O         5.04886457898085   13.47481486481874    1.59055928953524
O         6.49246449368954   12.94074100608271    3.57048022672249
H        12.98571004457257   13.86719076012947    0.00041525003747
H        10.80199207424130   14.18985783354777   -2.93024979036471
H         4.15342974759513   13.14966863745581    1.48944000457631
H         6.28359219007000   12.54444653668524    4.41663809995063

