53
CSD_code = RIVFUY | q = 0 | S = 0 | Stoichiometry = C19H26N3O4Re | MND = 6
Re        2.79864174424054    4.69670384917115    2.77907738875666
O         4.91376116812836    2.45937247890533    2.79642484973934
O         1.10035940600279    3.55527497748558    5.05508248704350
O         0.97486716836590    2.96923550469299    0.99430288637818
O         2.80211374247377    4.86727716718744    5.67243224160099
N         1.32516241152667    6.56142452840681    2.54069357621298
N         3.96685913094758    6.29432790082710    1.37394691066871
H         4.21295683089286    5.83102149145698    0.50234892754431
N         3.92821060892641    5.95160497332259    4.05723458053784
C         4.08796243988385    3.27195114160315    2.79232400886284
C         2.03182646113616    4.15518243794635    4.62143522666581
C         1.66530326445627    3.60534679711512    1.67181762551684
C         2.11718061520593    7.74399613089233    2.18679164802183
H         2.64042931170534    8.08664881784986    3.08254494409764
H         1.46145768683356    8.56788417544845    1.85813818569866
C         3.13901552929173    7.46233460366180    1.07666405675162
H         2.60352390470414    7.27585992192792    0.14198750764707
H         3.75662453992757    8.36265154285983    0.93435292196734
C         5.21045044174731    6.57077971973190    2.09872479563895
H         5.74970016219602    7.42640732132224    1.66280847613293
H         5.83800499073389    5.67988561131553    2.00609293443711
C         4.96733100749044    6.83508782387758    3.59403045558411
H         5.90416853643984    6.68892975168636    4.14763617878781
H         4.67145692828247    7.88282578106885    3.74791990576050
C         0.60456321083410    6.82826413249884    3.78641999773121
H        -0.06396234905845    7.69466677573092    3.68220849892539
H         1.30204231278986    7.03144078470563    4.59880558044616
H         0.01130756830837    5.95499950888314    4.05526146857174
C         0.32474059919734    6.30657501210422    1.49993821632569
H        -0.32051149632404    7.18424648927000    1.35381250828153
H        -0.29215140545488    5.46015517465568    1.79584295807475
H         0.80292925169966    6.05687637868970    0.55485934938853
C         3.76580550999098    5.68535978301564    5.30013596928825
C         4.63677954802715    6.19192699577321    6.39211033623338
C         4.38639431007088    7.41136929865699    7.01817613644909
C         5.25593114856696    7.84319179781059    8.00712882315016
H         5.06982405106244    8.78722664607393    8.49938697199355
C         6.35601934967608    7.08422110815219    8.38377055403386
C         6.57104697147248    5.86367875609264    7.76024481046542
H         7.41471492102914    5.25689019255205    8.05623336273285
C         5.72255573147727    5.39766470429091    6.76725490431674
C         3.18073088246673    8.22341518177337    6.64599145409737
H         3.23707271439609    8.55808655719942    5.60886081890781
H         3.09814511621700    9.10322765408104    7.27919571108645
H         2.27628029293781    7.62668308009137    6.76457359311167
C         7.27058648317695    7.56770273681701    9.46703076056638
H         6.80892160885964    7.40602256163141   10.44121420403515
H         7.46388809585375    8.63349972719486    9.36271793827547
H         8.21656673671985    7.03284270547783    9.44619618390193
C         5.94320053115444    4.06671270967753    6.11721559652907
H         5.10394142354536    3.40424848660617    6.32830044838009
H         6.85361087859342    3.60201191933568    6.48633168265116
H         6.01335797117416    4.15717869139498    5.03336844199743

