73
CSD_code = RIVFAG | q = 1 | S = 0 | Stoichiometry = C32H30BClF2N5ORu(1+) | MND = 9
Ru        2.27146314456499   10.08539714175789    2.34727242094673
Cl        0.83884469682251   11.46339212167856    3.57211693154331
F         1.81248404950902    2.38921864766615    7.01651835223269
F         0.19004197050200    3.76704336883100    6.21622544642312
O         6.97984387602685   12.23403364327667    6.80406517386004
N         1.36846703767984    7.93353979041812    3.98050995471186
N         1.03786904164890    8.62914886876658    2.87557861044696
N         3.00450287224192    9.50571188747396    4.15048204209282
N         2.37017303137923    4.00913247448203    5.32280222550071
N         1.83049871864245    4.71695069395672    7.64215675925948
C         2.52275807823129    8.35725674706761    4.63111618332433
C         4.62640874435485    9.53873353801993    5.94796610833459
C         3.98262651558019   10.15059035837298    4.83481408461410
C         4.20107665798302    8.25000491052683    6.32778344396358
H         4.71499675261515    7.72509964717046    7.11768489185629
C         3.31665223169870   11.79048381320130    1.11872180030481
H         3.59187372856294   12.81198201642462    1.35925991576503
C         3.13474170108502    7.65601640187915    5.69432198729384
C         2.70456899328122    6.29220549243272    6.04153922580689
C         2.69130794040396    9.18619362489496    0.30523118564431
H         2.46517985111263    8.19943618475777   -0.08707926964517
C         4.33949152024746   11.47026392796572    4.49270540448143
H         3.76475662431552   11.97834113587630    3.73157428157080
C         3.95610451426793    9.42790534909576    0.87566530828076
C         5.65483758658529   10.21767319494766    6.62154247549931
H         6.12853929990998    9.71989680137755    7.45190748764740
C         6.01993569341923   11.49419919114687    6.24107489151382
C         4.24559954537856   10.75860074270570    1.28719830427831
H         5.23481237781254   10.99452753797695    1.66247323965680
C         2.79384713787580    5.29319487759340    5.06641067361001
C         5.79445376091243    8.29633237046410    2.20301454447072
H         6.44221299409145    7.42366913258850    2.20801393706183
H         6.41990390185702    9.17649279248488    2.32802103875628
H         5.12028632135977    8.22852804763850    3.05637176370665
C         5.31997406389911   12.12231450715349    5.17800852732046
H         5.58196127186714   13.14237029818633    4.94694203451469
C         0.37765491207792    7.05656385985535    4.29200972374348
H         0.40141996416133    6.41318168241435    5.14604648468994
C         2.26994626431919    5.98757657921541    7.32658867696388
C         1.50606251884504    4.69548714313746    8.92604556270491
H         1.12770002199888    3.80143849906695    9.38375028250038
C         2.62237689803640    3.26251785867336    4.25568830676790
H         2.36296243408479    2.22167866150199    4.23800760790931
C         2.04798606355823   11.54597627302512    0.51599762667902
C        -0.14208034777215    8.20257375718855    2.47177946653550
H        -0.62649529118339    8.61939506247749    1.60962100723856
C        -0.59795553576183    7.20020777843485    3.33938832110595
H        -1.52041750229674    6.66210077940647    3.27815332028642
C         1.73025299548264    5.95823857976592    9.50264071293469
H         1.55845885687855    6.21380466009528   10.52882098341012
C         3.33939124224768    5.31804378831892    3.76079071901286
H         3.77159106261351    6.17406016036422    3.27902523863009
C         2.19509923990799    6.77844336725617    8.50358552123234
H         2.46037316821330    7.81480046227211    8.57561397382065
C         3.23597911244696    4.03881920391972    3.26215303971838
H         3.55974008086215    3.68361277526501    2.30446934342689
C         1.75207031007793   10.23351051135208    0.11680052781996
H         0.82981230723686   10.03098991615655   -0.41649361867569
C         5.01143093869085    8.34751502823483    0.89017481492258
H         4.51154990311126    7.38177884181838    0.74967196147861
C         7.70328504393665   11.71720312577423    7.90337816415754
H         8.40891872755620   12.49700217970332    8.18170048750165
H         7.04250981214614   11.50707329728641    8.74837938273309
H         8.25119131911833   10.81209115020510    7.62789588445975
C         5.95783791934901    8.57504986060358   -0.29493592540475
H         6.69873188477358    7.78144341674713   -0.33311459609204
H         5.40721807935788    8.57748110122874   -1.23254482952328
H         6.47613290502387    9.52584847760800   -0.19606669759129
C         1.09154807737311   12.67102571589301    0.29942729606689
H         1.61042411341605   13.54660588940785   -0.08618488002935
H         0.29850410989215   12.38985632380641   -0.38851370258192
H         0.63504284597651   12.94745681507822    1.25288794997718
B         1.52084929649373    3.63626613715846    6.56845047482965

