47
CSD_code = RIVGAF | q = 0 | S = 0 | Stoichiometry = C17H22N3O4Re | MND = 6
Re       19.56224661102580    4.72211762964644    9.10280818905314
O        21.30384322938507    7.10265771742639    9.99200204114819
O        18.99759429151293    5.79027848821642    6.28980190105384
O        16.94864995662107    6.16887808091559    9.85647767231908
O        20.83116818476440    4.53154063655290    6.50927500369526
N        18.35321849280979    2.82780181730220    8.65915494582439
H        18.86915756574165    2.19239569914575    8.04759120725095
H        17.50649748759263    3.09928422471051    8.15957218042481
N        20.04089922329415    3.09545634392335   10.87907343132954
H        19.77359075559226    3.53610847615203   11.75603175640001
N        21.21507087916655    3.56021569549784    8.50206405380397
C        20.61826404546203    6.23522142550962    9.64833471545047
C        19.66430082851715    5.22917939783872    7.09886116813756
C        17.94812638445862    5.66015587356329    9.57073114703136
C        18.00408784675657    2.13996020879638    9.90477340527057
H        17.46862452459139    1.19631633978331    9.72647867611600
H        17.35788755751176    2.80362028142579   10.48713594537235
C        19.28747162418347    1.85519661738840   10.69436184102253
H        19.03388958433547    1.37668636569440   11.64915141806092
H        19.89995735652625    1.14941637661466   10.12405521834532
C        21.49490037475826    2.94411127855571   10.82777738202987
H        21.85119412043365    2.12498824095211   11.47120769705126
H        21.93115123459999    3.88181924221921   11.18139336532015
C        21.96435721310969    2.70072229368807    9.38257793570765
H        23.04400548021063    2.88234303925429    9.31257032596766
H        21.80349186922991    1.64875759615840    9.10281570103985
C        21.56223050762292    3.75604588888462    7.28551354011858
C        22.77412189264605    3.17408343410628    6.65465533393678
C        22.71973790630378    1.92598988108101    6.03746494212432
C        23.88108553849902    1.40196473891788    5.49237600297538
H        23.85014376860297    0.43494320155549    5.01052384236585
C        25.08088656917891    2.09910391140855    5.54604439129136
C        25.10253772840616    3.35029937761667    6.14611646321356
H        26.02735189698310    3.90833323440851    6.17731817064807
C        23.96056954873997    3.90722784205381    6.70176181239554
C        21.42032132283321    1.17787896211447    5.95817038827591
H        21.14461211885238    0.77443652247495    6.93506563350336
H        21.49785352534786    0.34517778888093    5.26361346584212
H        20.62313731964059    1.83900507582302    5.61976387901844
C        26.31916785927512    1.51923977254539    4.93421811733031
H        26.30999453953092    1.68169303147981    3.85594378436079
H        26.37231883484171    0.44654362975344    5.10997451372519
H        27.21157077911749    1.98950743085014    5.34020673351003
C        23.97720137794425    5.27002933808494    7.32285142530690
H        23.30607281058262    5.93566269783831    6.77986586483985
H        24.97863512505800    5.69237444164251    7.30209606477720
H        23.63220230780385    5.24153041155118    8.35677730621989

