50
CSD_code = RIVJIR | q = 1 | S = 0 | Stoichiometry = C19H25ClN3RuS(1+) | MND = 9
Ru        2.20165402090250    6.34882176908449    2.11697492787466
Cl        3.57605894874386    4.72733809307579    3.07490080388448
S         4.10993469986582    7.74378688293607    2.21729697600180
N         5.12852892030855    8.60208704948526    4.48766805450035
H         5.94380194948348    8.82761522481957    3.94058580821662
H         5.18964609898154    8.69628540681384    5.48833623186443
N         3.02935203390316    7.62710106046871    4.59891597190858
H         3.04683458210521    7.68975630699265    5.61439801270290
N         1.96443988030491    6.95644543839764    4.03232898001166
C         4.11027211817944    7.98751291184773    3.88066357466299
C         0.91794933608245    6.77832493311158    4.77086753551094
C         0.75108525719400    7.38903583634902    6.12856072944052
H         1.37855285317569    6.87488564644574    6.86003495123108
H        -0.27837046038573    7.27510074773104    6.45531325476246
H         1.00377322829622    8.44961223354145    6.12604465862762
C        -0.11561805964311    5.83921730031382    4.31573958872342
C        -1.46210456601877    6.19874057979718    4.27089696792771
H        -1.75353733066479    7.21910392103519    4.47221929659247
C        -2.42099152221407    5.25491946516272    3.95129678109947
H        -3.46052729325151    5.54119408634723    3.90752299032647
C        -2.05195696800345    3.93980675964784    3.71108041058526
H        -2.80688331254851    3.20122385167043    3.48926238138062
C        -0.71624670632345    3.57321766259624    3.76944830762379
H        -0.42858274467915    2.54599342355962    3.60654722463964
C         0.25560696653705    4.51690956369062    4.05313952973057
H         1.29448242973231    4.22470654802890    4.13312408762759
C         0.89591324853285    3.21180663473398    0.56491324828422
H         1.68013823365074    2.77027434460773    1.18042686277665
H         1.02645376117214    2.83702155300831   -0.44972979094972
H        -0.07068478396935    2.88935193310993    0.94198347518304
C         1.01108226607404    4.70009121477264    0.57925670130861
C         0.00103884000821    5.52179044458137    1.07997287368211
H        -0.91487859807973    5.08349660313003    1.45455640114669
C         0.13037671855198    6.93149291346483    1.06141325176300
H        -0.69452698457461    7.52800379554755    1.43183647688176
C         1.20106780837116    7.55785523201519    0.40115128237996
C         2.22164384523593    6.72048963312776   -0.11976552417644
H         3.03853225127510    7.16575795934719   -0.68129051333538
C         2.16702321607965    5.33023170816474    0.03495060013296
H         2.94488706174844    4.71160043966703   -0.40144648976455
C         1.23914527490597    9.05138142762929    0.18452459723014
H         2.23734052847873    9.31769802340486   -0.17973361385634
C         0.98963443691062    9.81406644766321    1.48750448414814
H        -0.04015561287179    9.70568905874238    1.81824134381007
H         1.18582868045170   10.87196844434845    1.33821678722734
H         1.65351824095263    9.44638307883030    2.27269809445642
C         0.21281994054605    9.43933246871626   -0.88454546118359
H         0.41108916206255    8.91321529537339   -1.81519990061374
H         0.26554873455737   10.50743551331557   -1.07557124167078
H        -0.79579063013699    9.19612312975927   -0.55883198231872

