86
CSD_code = RIVLUD | q = 0 | S = 0 | Stoichiometry = C41H40OP2PtS | MND = 4
Pt        6.05530455087954    1.07846848006676    2.18668072161086
P         4.06842947366948    0.70797770318659    1.01080526940988
P         6.67336504579924    3.06778218079167    1.17754040081668
S         5.88929764123294   -0.74637439546308    3.58996186267075
O         8.40866587776939   -1.05347069192404    4.60222866855304
C         7.81415099980790    0.95114807420550    3.24038698973687
C         7.45912699291996   -0.06093448676482    4.32085834934626
C         7.13279073427459    0.58696886776062    5.66178579943037
C         8.81882212084690   -1.88362034580458    3.53535806603422
C         9.28298443743783   -3.21345903571251    4.10973628939615
C         3.35087621882426   -0.95745204003654    1.16606032017698
C         2.80124690331866   -1.27507338358399    2.40578024281524
C         2.26090866429374   -2.52645684527716    2.62499687789085
C         2.26835428038366   -3.47058040035138    1.60996426968010
C         2.81888137361920   -3.15963880472498    0.37835489326090
C         3.36300384827952   -1.90714054187433    0.15240612706909
C         4.56316236445144    0.75756623568021   -0.73903320317962
C         5.82139340536954    0.20656206329759   -0.98169584650454
C         6.34847832995737    0.19763937297003   -2.25742142788150
C         5.62350077311349    0.75025703940339   -3.30240115533792
C         4.37983543908658    1.30893144586115   -3.06430820419830
C         3.84613549170342    1.31646748983469   -1.78643573636302
C         2.55034617169091    1.71068625849796    1.11297257217454
C         1.37990549951339    1.34817988218167    0.45378167575628
C         0.25382491467241    2.14281725494358    0.56402612263096
C         0.28353562577940    3.29244846274518    1.33886841416211
C         1.43824314899448    3.64236758537246    2.01867872153895
C         2.56692907508885    2.85001266217081    1.90849389132431
C         6.06350648447325    3.69434914632219   -0.42724240407822
C         6.82109936209834    3.65354115298488   -1.59172538481129
C         6.28695111952210    4.10832105938045   -2.78411404343795
C         4.99464298992441    4.60195618873510   -2.82919516259743
C         4.22969064504658    4.63332885281579   -1.67432382890593
C         4.75787797972581    4.17707995088982   -0.48306960847145
C         6.21509834641805    4.44220270995195    2.27795791951407
C         6.27873981459660    5.77829130488650    1.89313526550317
C         5.91378654130032    6.76867643146124    2.78694462255735
C         5.48277413515997    6.43526925388286    4.06191448177367
C         5.40994323024512    5.10612339162091    4.44650524984982
C         5.77372115656836    4.11338592136466    3.55510597971059
C         8.47706863495024    3.23858683428827    0.98191220700732
C         9.11887068815032    2.20107571072859    0.30778349082039
C        10.48801745379536    2.22449591072891    0.12780028250736
C        11.23181846992082    3.27889723204701    0.63480802217261
C        10.60167655516055    4.30127741557531    1.32307418472251
C         9.22810181095252    4.28508193330985    1.49916596533435
H         8.19444043521920    1.88435072437748    3.67722888323945
H         8.59309116882191    0.54202414199988    2.58408452771795
H         6.79225212693670   -0.17666220636610    6.35665760277439
H         8.02748927763821    1.05813609722388    6.06484527357342
H         6.35005688193905    1.33166356747548    5.53602743967272
H         7.97668659097362   -2.04252982009798    2.84693665828808
H         9.64352694406058   -1.40910419830076    2.97966256877043
H         9.64354204935793   -3.85704230302954    3.31134965169827
H        10.08350481241095   -3.04519570267675    4.82569150149691
H         8.45800014096142   -3.70269039737576    4.62046704234370
H         2.81852366913311   -0.53522412988483    3.19495490589044
H         1.84088503615212   -2.77148845105136    3.58927703864741
H         1.85079907498268   -4.45199246959127    1.78155787023276
H         2.82934015532711   -3.89721328309404   -0.41163128286398
H         3.79760374556330   -1.67195642124075   -0.80955952060936
H         6.37047842422821   -0.22079423167195   -0.14225787043219
H         7.32105425397721   -0.23520260672462   -2.44304469341778
H         6.03178883232313    0.74915208279833   -4.30232211881182
H         3.82045031615363    1.74529044680857   -3.87905521223596
H         2.87966409164139    1.76456735367415   -1.60665448730484
H         1.35403774433806    0.43975922323825   -0.13281880426794
H        -0.65386345306037    1.86399784321430    0.04835527821240
H        -0.59968827680196    3.90882808595580    1.42131734665003
H         1.45796405228939    4.52852125138915    2.63672748660949
H         3.47271654570457    3.09957008467083    2.44920068415312
H         7.83351116407535    3.27756815041449   -1.56596109870419
H         6.88601616726471    4.07928914256411   -3.68259068170460
H         4.58386068383572    4.96051562313826   -3.76136897555062
H         3.21845270228685    5.01282048892751   -1.70182054353562
H         4.15935810798461    4.19969969686600    0.41702811681305
H         6.60703955410790    6.03555086517038    0.89508776435230
H         5.96499211986395    7.80586787719541    2.48864645230635
H         5.19948681568845    7.21414164927052    4.75453038978453
H         5.06773954447821    4.84650078439607    5.43750619030570
H         5.71624827754040    3.06024481154148    3.83002181873803
H         8.52666013635086    1.37196121810086   -0.06063825380343
H        10.97972877225181    1.41889742589622   -0.39818312145929
H        12.30342609022537    3.29717612399980    0.50170950893121
H        11.18296379862296    5.11595948309221    1.72998920098535
H         8.74598660437133    5.08152148942488    2.04757725124452

