125
CSD_code = RIVLAK | q = -1 | S = 0 | Stoichiometry = C60H60N4Y(1-) | MND = 12
C        15.42806371576141    6.79444561055549   11.93694684172105
H        16.07263072875431    7.58475752014283   12.32147277852211
H        16.00776626390025    5.87005475525162   11.89866775950513
C        14.88422646996979    7.12569336845919   10.54968165835809
H        15.59824990146782    6.89329845573754    9.75867201725019
H        14.63087590831487    8.18667809135740   10.48569672331762
C        13.61631386575057    6.28449228304201   10.47463100080403
H        12.94984204285428    6.58693728058903    9.66613594099386
H        13.88763742619462    5.23719373449481   10.33878354066455
C        12.99425959772294    6.49063183380864   11.85371090537650
H        12.28843949833829    5.69838247583094   12.12511200063038
H        12.45747111873792    7.44125916969664   11.87739269572691
C        12.08616937708782    7.46494719115202   17.87234838384866
H        11.14528105767624    7.80865339867786   17.44541297851227
H        12.64242809430047    8.32823121897211   18.24673775029753
C        11.88242586483334    6.44789927152528   18.98758931845027
H        11.52859435008420    6.90043992565422   19.91517341904338
H        11.15815437831963    5.70025687246275   18.66087201994575
C        13.26723054054418    5.82274166556437   19.12176279594375
H        13.25110080229881    4.86014702800662   19.63066860518455
H        13.91478923800632    6.49348622744054   19.69251293341360
C        13.77161080352770    5.70757068097110   17.67679641267988
H        14.83309963658044    5.94584727876791   17.61161917051634
H        13.63857518333382    4.69059829456844   17.29221155012089
C        12.93001889829119    6.69364286440727   16.83162612741341
H        13.61277363163242    7.37955959954695   16.29801035824041
C        14.18587994957509    6.54338338935383   12.83655789512040
H        14.03372439630430    7.39749928173640   13.52266314753451
C        16.57373859023259    3.77931034318608   16.05085113942325
C        17.23283533243987    4.92369962406079   16.58843545287498
C        18.14223343554272    4.77210955564657   17.64931268837423
H        18.62621871520023    5.65657547243240   18.04539089535784
C        18.41348246077835    3.53906517579324   18.17541914943383
H        19.11054510232281    3.43022937978210   18.99544927474100
C        17.78416129333007    2.40333635839075   17.64007486525511
H        18.00935402715802    1.43038728188796   18.05718946781445
C        16.89869897543250    2.51663885428414   16.60806590851422
H        16.42041172401987    1.63714121726109   16.20281807965628
C        15.30546568808465    5.20274619119810   14.50024685716380
C        16.04805272311813    6.31539554536543   15.00523449020642
H        15.87005853829304    7.29969685081429   14.59884416449398
C        16.96119101459391    6.17831665896412   16.00648714243543
H        17.49453006378184    7.04720960355097   16.37398845610931
C        15.64798108839684    3.92125032911086   15.00047208761638
C        15.71920745308017    0.85168811981553   12.76209908920630
C        14.66970091892253    0.10166469988667   13.32917979038833
H        14.49870136639541   -0.90620714136635   12.96942930218693
C        13.87876717252377    0.61424303395111   14.31238416186092
H        13.09235047719137   -0.00495650256412   14.71865302867249
C        14.04942491516949    1.94741718253367   14.80322398334140
C        15.17506318911885    2.66622149809323   14.32737584350960
C        15.98430735933429    2.14487293276522   13.30068351634646
C         6.95548404501778    3.68454408612622   17.13960430604413
H         6.42600944417493    2.77057900318014   17.37979607221587
C         6.65942857501943    4.84922020465524   17.79268788251602
H         5.89704549306535    4.87347045215454   18.55974374542310
C         7.34916266210885    6.02598933501485   17.45801780467376
H         7.10406610115722    6.94527164357546   17.97395260774881
C         8.31716846073270    6.01880316027393   16.49640398474920
H         8.84081176345751    6.92948470368075   16.24563966878939
C        11.27645635821714    2.42113906557388   12.48296472920934
H        11.36084309697196    1.48661894439596   13.06890500608278
C        10.10890073825073    2.30827538234124   11.46375691894933
H         9.41799830550297    1.50014687735233   11.70310369611260
H         9.55383593849510    3.24820008269174   11.48329958407606
C        10.76028274103001    2.11653390917486   10.09695862918973
H        10.11719446475126    2.44932449083009    9.28138203929856
H        11.00311291487884    1.06315555145399    9.93767998471068
C        12.04127839287096    2.93215660888094   10.21730167711893
H        11.79629259839685    3.99369876772208   10.17515079595210
H        12.76841682346858    2.70423526787528    9.43722131444997
C        12.54516405075432    2.56459293391209   11.61115500040926
H        13.23100981014230    3.31159680573345   12.02524691200173
H        13.07320414057701    1.60961759442272   11.57211085411934
C        10.04107022726890    3.57580119067910   14.20363007786412
C         9.24187032637089    2.42860784071192   14.50286888265029
H         9.43994517111187    1.49740948632571   13.99377506329361
C         8.24989962821277    2.46337721994960   15.43560329406061
H         7.67474249390624    1.56935721061023   15.64637202947347
C         7.94917037292027    3.64248783888491   16.14646487929149
C         8.66906466889456    4.82710270536031   15.81320676747318
C         9.67823306708083    4.79303109519731   14.83274541811605
C         7.80309907991781    6.84623376011377   11.65212083421364
H         7.00151934639834    6.35993563729906   11.11126357218437
C         8.15221299197562    8.16480977809239   11.31747082459583
H         7.62230230526494    8.67585390271238   10.52481399656841
C         9.15499290342788    8.79262777076259   12.00396304063877
H         9.42791232624872    9.81338774795618   11.76514638690244
C         9.85281231606619    8.13453369127351   13.03122000256468
C        11.72713180738334    2.22408411945978   18.78610333733567
H        11.67318994733986    3.09646637806959   19.43568512608044
H        11.04488487410764    1.46743037127978   19.18235584491327
C        13.13234854773065    1.63894736575081   18.69033875360491
H        13.40966917592985    1.05323164513113   19.56810917970025
H        13.86613975243922    2.43401892083572   18.55038054480435
C        13.05552964279942    0.80174763952475   17.42033725428993
H        12.49137502001086   -0.11558176550495   17.60763877868918
H        14.03954538171716    0.53872748351967   17.03536694917586
C        16.52143671582803    0.34990232226637   11.72281121846983
H        16.29709554705428   -0.63225104661956   11.32469639327998
C        17.56410200597205    1.07929920049425   11.22113665207069
H        18.17497949076356    0.68886189261292   10.41820809364566
C        17.84785099128426    2.34456965605683   11.76074566594169
H        18.68063411871855    2.91149811027507   11.36500571274289
C        17.08855352504746    2.85960271361587   12.77087141607678
H        17.31572155617260    3.83327117861111   13.18001048464065
C        10.22972322772205    6.11084230720256   14.37320110096655
C        11.35772168036474    2.55752019257001   17.33445918598304
H        11.51278311821789    3.62126804782950   17.12333002481570
H        10.31001342611747    2.33352832728213   17.13450743907676
C        12.28815624531400    1.71091600265756   16.43256735730441
H        11.66726030729321    1.10410329731516   15.74840656998654
C         9.52278913115476    6.78739231175700   13.36172414964033
C         8.46085613151788    6.17987771817792   12.64488349029927
H         8.18451040530958    5.16608325534615   12.89576070745062
C        10.85573579512639    8.77428234676533   13.78673406814455
H        11.07016884741251    9.81756517907793   13.58667636898746
C        11.54866527534402    8.11287881000099   14.75485298216466
H        12.30123868711583    8.65148961963545   15.31213354928404
C        11.31874806925897    6.72923507169967   15.03850789838353
N        11.11031756092718    3.57418002841823   13.35577909342193
N        13.21557735257549    2.55785966734926   15.69492623591241
N        14.30862148233149    5.29370399212666   13.57287345145173
N        12.06282157596928    5.98054211759054   15.90366161386635
Y        12.67457507187757    4.35271274226961   14.62638945955777

