74
CSD_code = RIVNUG | q = 0 | S = 0 | Stoichiometry = C29H41N2ScSi | MND = 8
Sc        4.97247400762881   12.53997226985006    3.95587828441575
Si        6.69875761228326   14.03971480134257    1.99904689384512
N         5.38932731982197   10.47391964147225    4.86197315440999
N         6.04120746337779   12.45800025960417    2.21852757574250
C         2.94950419406030   11.72128582238479    4.11427197609246
H         1.98554509414358   12.22990289362696    4.01190409968591
H         2.99336050262531   10.89456591123999    3.39055593669222
C         3.15265870246424   11.26184127708807    5.48974162633466
C         4.34458321742571   10.59241803980436    5.87283521059257
C         4.50765286914222   10.13615071484080    7.16920623511984
H         5.40468113023100    9.60927515546167    7.45871428715853
C         3.53336366508852   10.36276745780674    8.13134867509212
H         3.67936105400309   10.00279419451453    9.13821165555575
C         2.38781489803188   11.06228223947546    7.79084940886081
H         1.63293791326950   11.25809708931734    8.53842718660652
C         2.20137618869334   11.49653938350356    6.49445478506654
H         1.29695023998917   12.02866679379163    6.23333245294052
C         5.19925429116914    9.24771657786544    4.07552166201164
H         5.40977208570587    8.35888901835683    4.68605389340296
H         5.86440107736678    9.25339723471144    3.21073426472006
H         4.17302671982218    9.17644864639721    3.72092875437859
C         6.74214980970560   10.45061089429427    5.42591198058897
H         6.86494140590906   11.26958183472006    6.13555112797865
H         7.46227442875042   10.55959390947059    4.61271576351151
H         6.96148553671467    9.50224880002914    5.93631020048973
C         6.07664092015454   14.61123862820508    3.70904494329763
C         6.61173091418542   14.01907503680231    4.90100939325396
C         5.59806255155954   13.97833016217514    5.88845016367528
C         4.41297219403368   14.52265819812956    5.31307911341590
C         4.70919901045465   14.90525314478218    3.97841959656591
C         8.07444420010023   13.73504280703165    5.11789618228533
H         8.28584024547572   13.53154003496212    6.16692528100949
H         8.65939732308207   14.60633771393609    4.82332476451701
H         8.42757233366949   12.88844037945006    4.52671368193486
C         5.73866385517287   13.67361872540011    7.35541167237207
H         6.71293569760975   13.24714748832339    7.58980056857777
H         4.97047089526998   12.97671623396323    7.69522171516270
H         5.63030147542804   14.59167637821361    7.93717775781563
C         3.16974205148318   14.87447082096500    6.07730495780100
H         3.29800726194904   15.83631984991554    6.58105603221735
H         2.95268481665805   14.12646849559734    6.83853914637968
H         2.31115049810870   14.95385064892341    5.41298901985770
C         3.77527984609202   15.69963970593314    3.10683258447099
H         2.90952155841458   15.11495473486873    2.78407387030749
H         4.29911488119792   16.06151773650059    2.22805346716077
H         3.40140664271223   16.56424166928907    3.65856596744811
C         8.59705593403033   14.17691601911470    1.75017281429424
H         9.17506641506516   13.56731254677912    2.43366178847107
H         8.92219957104200   15.20511973774146    1.87082226694406
H         8.85354191794212   13.87110094020181    0.74096769324236
C         6.03474470376638   14.98590564356906    0.47021453220335
H         6.42366408074218   14.51580273370579   -0.42755408283527
H         6.36593281831793   16.01901259921708    0.46741214457513
H         4.95393953224753   14.97717661815267    0.39762313884575
C         5.85961311353654   11.44055281444306    1.29772384229836
C         4.64257203199939   11.29944400917133    0.59569896688757
C         4.46022251524042   10.23506663790933   -0.26853168948398
H         3.51948451784572   10.14385077775884   -0.79561042276334
C         5.45130129158111    9.28696740897782   -0.48810457710404
C         6.65451719686752    9.44038832270958    0.18179946927093
H         7.44999785318490    8.72496583356650    0.01785406059561
C         6.87325560546431   10.49050096387744    1.05824722848427
C         3.54588638945837   12.31398722055238    0.75877764615720
H         2.56902431845714   11.83255008157100    0.74320651020295
H         3.58039670818846   13.02890655225299   -0.06378064251715
H         3.67154817016678   12.86668816769518    1.70212863381498
C         5.22181225598788    8.14895926829259   -1.43797640316163
H         4.29035341816448    7.63483464373642   -1.20442579550668
H         6.03781269175759    7.43199207555271   -1.38906450178964
H         5.14987892539073    8.51771474412309   -2.46140482231761
C         8.20478592975721   10.62311148559390    1.73855325244429
H         8.59456163526176    9.64866576080000    2.03143442375913
H         8.10920632832481   11.26439790526201    2.61314093122660
H         8.92572353021763   11.08618903329621    1.06521662295655

