33
CSD_code = RIVNAL | q = 0 | S = 0 | Stoichiometry = C14H9Cl3N2O4Ru | MND = 6
C         8.61084662761281    7.62538779740543    8.34166438234441
C         6.71805903772059    8.29413959703411    9.92779495733306
C         7.33509860286653   10.11369019978589    7.84168051496306
C         8.60009112435632   11.99682357587533    8.49027293904616
H         8.89236510524050   12.17848895367710    7.45448844687826
H         9.42828973805625   12.19237469720044    9.16538045799185
H         7.74633442581520   12.63115167336973    8.73510711017110
C         3.97284772721086    8.93587630574565    8.56100991648706
H         4.23537913074839    8.83493235878636    9.60706700692583
C         2.68366530111979    9.28379975421707    8.20916374114448
H         1.93612885561471    9.46041774714199    8.96446683617913
C         2.38081010040427    9.40165506238253    6.85636941880630
C         3.37144767005379    9.14795182474985    5.92308550909183
H         3.14516668532463    9.22281951929724    4.87342287685752
C         4.64606552993355    8.79513604212195    6.36397261489100
C         5.74008220854282    8.44364450666774    5.45442487017096
C         5.61401298566700    8.46117336950766    4.06612873328179
H         4.70445021293100    8.78892454591649    3.59298643166431
C         6.68201350116874    8.05160907114995    3.28627180603376
C         7.84694155554754    7.61949048662507    3.91259612059513
H         8.69391493551193    7.28027838182450    3.33983799203055
C         7.89261132919027    7.64256499188891    5.29240376813012
H         8.78725829946395    7.31206470166929    5.80597888608001
N         4.93870309937915    8.70243809348312    7.67495372837676
N         6.87929768127737    8.04921082292836    6.05450732673928
O         9.68094070325174    7.27150742139040    8.52854829765415
O         6.65444203872976    8.35006521237864   11.06730180580879
O         6.80672968678646   10.77358412565967    6.97079817066153
O         8.25417944279341   10.61758298372061    8.66832447909004
Cl        5.95268873606859    5.89682043432766    7.94694029616758
Cl        6.56368040535285    8.07086959975253    1.57503242191041
Cl        0.80377748329369    9.84519321865459    6.34755355808705
Ru        6.84988003296698    8.15803292366457    8.07916457840635

