113
CSD_code = RIVPUI | q = 0 | S = 0 | Stoichiometry = C43H63LaN3OPSi | MND = 9
La        1.38317258039207    6.96632954135449    4.45140436646212
P         0.46291663766711   11.29718818647396    6.27122945211357
Si        3.68213305312040    5.18915306070866    3.17178610806612
N         0.90325543024348    8.46275685547655    6.42462451114539
N         0.61193361827296    9.29298345385066    4.37025222851125
N         3.41599723025226    5.97100675656818    4.68797670223895
O        -0.84250553827283    5.39763386675040    5.21444582296529
C         0.67006366016963    9.51926091027529    5.67424929261076
C         0.93816811961154    8.45913987664947    7.86836975308152
H         1.02794657644761    9.47865631516930    8.26869191809360
C         2.14927417566067    7.64289728037996    8.33071369327507
H         2.11493257052221    6.64468132670641    7.88882351094512
H         2.14897883164298    7.54860981124669    9.41429125924106
H         3.07940328614643    8.11706054307273    8.02581425008075
C        -0.34757943637986    7.82987657711173    8.42095408728304
H        -1.22246718464033    8.35649198493205    8.04738990273021
H        -0.35280059520265    7.87753203211241    9.50733538954877
H        -0.40728383252434    6.78820528897435    8.11244656951721
C         0.44963759979297   10.37015439595838    3.41395816113040
H        -0.21128442633095   11.15310210433733    3.82722777595339
C         1.80618670372806   11.01067866916922    3.10381655720498
H         2.22794791937257   11.43930692405046    4.01362524308844
H         1.69638608129658   11.80089440182745    2.36528883260326
H         2.49381616456105   10.25827542504135    2.72106294515811
C        -0.19834037735404    9.81175411029655    2.14686640624991
H         0.35459498424744    8.93719931125503    1.80161278265715
H        -0.20101899707641   10.56479264769458    1.36261908824237
H        -1.22690368413567    9.51637689388888    2.34382432136344
C         2.00142583452720   11.53488954413826    7.22923485144353
C         3.12989170603067   10.74018633288225    7.04612284391893
H         3.08755368451180    9.88557127307171    6.38448910437373
C         4.30207149086293   11.02961695447473    7.71995682686878
H         5.16212441740724   10.38968936150212    7.58904678924726
C         4.37310251419686   12.12696787074142    8.56159949487260
H         5.28811021779189   12.34637119772486    9.09184493523900
C         3.27132003373256   12.95485985580985    8.70625517560843
H         3.32957636692886   13.82891132172617    9.33911080006709
C         2.09860330377174   12.67104433367501    8.03270269270210
H         1.24966252302693   13.33662961677896    8.11849830690056
C        -0.85102914724917   11.04771507821613    7.52255447498447
C        -0.75880700251342   11.32528931222551    8.88216017271046
H         0.18062975546442   11.64207077479102    9.31217073090171
C        -1.86536768789521   11.17624157440647    9.69842325196277
H        -1.78020160516867   11.38766792754160   10.75481669256504
C        -3.07728682103952   10.76030458378660    9.17310326025623
H        -3.93766878359534   10.64814052884138    9.81621958930591
C        -3.18173047776450   10.49227120481771    7.81743160964438
H        -4.12548192457240   10.17110065719529    7.39954813539972
C        -2.07955388761955   10.64248142328983    6.99896627956413
H        -2.15644898702556   10.43779797700880    5.93780954310302
C         2.04854044363031    5.73038775979258    2.30183316686248
C         1.95439864164290    6.75417551628899    1.27296595081218
C         0.84136861664819    6.50279412265283    0.49515815850337
C         0.19563956887655    5.32893156760975    0.99072638190005
C         0.91563470293723    4.85292689893098    2.06999989407103
C         2.97967920672080    7.82493375746904    1.02662783115242
H         2.52255117407064    8.72225563056368    0.60947155075139
H         3.72684749636760    7.47629498497801    0.31050393857990
H         3.49339552514320    8.09539497360633    1.95016591711076
C         0.34608157447802    7.28145083582506   -0.68283651359511
H         0.27944008291821    6.63885048050918   -1.56128516748644
H         1.01279284245152    8.10712291098059   -0.91757222820106
H        -0.65054774264507    7.68752655979313   -0.49478647842964
C        -1.03913448158443    4.74046703158943    0.38295228782887
H        -1.76840886795896    5.51815583337106    0.15301073185274
H        -1.50345282147227    4.01658623486871    1.05016086985567
H        -0.80063697273941    4.22798187324949   -0.55084212062382
C         0.64669933913337    3.57697400478691    2.81372056103727
H        -0.42390269844911    3.37917476354298    2.87740712576466
H         1.05869808632141    3.62250811590393    3.82252683535649
H         1.10355600159229    2.72989775893316    2.29810809160056
C         3.90266185841634    3.27810261362302    3.27000171234278
H         4.90677125152733    3.04265171990821    3.61004629660521
H         3.77361614411633    2.82254768612612    2.29385804328658
H         3.20774150048987    2.80091880075700    3.95039866545208
C         5.30344661696417    5.65551272122986    2.24893564562680
H         5.36296941707982    6.69805477642415    1.96366274775005
H         5.42032747828035    5.06299105588668    1.34744246766995
H         6.15107003999406    5.44338114782414    2.89431091875668
C         4.29865489687278    6.17488838867931    5.73767213450909
C         4.37364629926195    5.25707483386444    6.80288876997416
C         5.23971367088072    5.48487702356034    7.85804168174626
H         5.28572067984321    4.76496481648151    8.66467985231305
C         6.04880134290216    6.61055298556982    7.90669119793085
C         5.95586103615139    7.52675430749582    6.86804152635091
H         6.57713177258818    8.41320708443847    6.89115705112894
C         5.09866000668175    7.33406579068437    5.79918250615568
C         3.49913149116361    4.03797818723497    6.78636283647911
H         3.96754741668249    3.24566030653172    6.20422454704201
H         2.54201379824110    4.27403234087115    6.31086602335017
H         3.32722289971960    3.66906984268322    7.79611794428808
C         6.96915208243663    6.85411931129570    9.06627326941002
H         6.47001095323762    7.46110707125852    9.82357200909212
H         7.86309310783760    7.38550992228801    8.74625577581102
H         7.26575007899543    5.91568650178499    9.52920465159107
C         5.00325166295544    8.35893578699419    4.70747890983389
H         5.49756545553406    7.99650739881407    3.80739564542379
H         5.47175113740249    9.29437312031378    5.00795820285429
H         3.94919764836181    8.54676376499310    4.45496914799899
C        -0.92476145163441    4.56645522505215    6.37001728574149
H        -1.68482311044836    4.97258912483687    7.05436179958408
H         0.05728215027785    4.64306764334681    6.84774504132109
C        -1.23320163503588    3.10126777280579    6.07709027061146
H        -2.24685569304469    2.97461295778291    5.70591319680421
H        -1.13269685771411    2.52878911571777    6.99504884189360
H        -0.53606440534729    2.70772906984226    5.34269939381194
C        -2.09905869986935    5.56611296082295    4.55625157092117
H        -2.86372570927197    5.81567556269068    5.30720698994253
H        -2.38725037221890    4.63015068661698    4.06070402250137
C        -1.99047682206444    6.67858396958336    3.52588159720166
H        -1.72447926287938    7.61681894538265    4.01581531909331
H        -2.94954114553993    6.80426404300026    3.02740712800231
H        -1.24102512260627    6.42248474410289    2.77098408371570

