87
CSD_code = RIVPES | q = 0 | S = 0 | Stoichiometry = C33H49N2OSiY | MND = 9
Y         4.95939790116499    3.71078434151534    4.07619810441230
Si        6.76310748985830    2.12543113440590    1.90443095682736
N         4.56260312386550    6.50608903761868    4.18377623761874
N         6.02701900714630    3.66789323095938    2.16594446222376
O         6.50629944360687    4.24804100126063    6.04866572796199
C         2.88313919545165    4.32302987376780    4.94019577745470
H         2.25643847726389    4.69646164264858    4.11607187429125
H         2.27134881228391    3.57573870282939    5.46408171516061
C         3.17104747231363    5.43312237213783    5.88238327028038
C         3.97839797627495    6.53178876966238    5.50528840755591
C         4.25212129535382    7.53765579398384    6.41817931388860
H         4.85872227354204    8.38394421046656    6.13229742256052
C         3.76424173799483    7.48074704079014    7.71477703806329
H         3.98571401272985    8.27826853980689    8.40866533834998
C         2.99888919302214    6.39790187709933    8.10813777094801
H         2.62263253085446    6.33645120475931    9.11891985649526
C         2.70696506074780    5.39750790576647    7.20070900731164
H         2.10711140608405    4.55398167070896    7.51641022221553
C         5.84007735895835    7.20888513068323    4.08149241083555
H         5.72603208940118    8.30075922613430    4.13013278889717
H         6.28648387120077    6.96478823613991    3.11722861592311
H         6.50370864477682    6.88572249315137    4.88315834834489
C         3.64587634580188    7.06198098288023    3.18524189623203
H         2.66377938269239    6.60315072269712    3.27323206230776
H         4.04033405073414    6.87387749935334    2.18554513274460
H         3.52736649417028    8.14615290465166    3.32080931849435
C         6.46106023006613    1.41266670226162    3.63371624757379
C         5.11655073702084    1.33637059558367    4.22494884729598
C         5.30105352665279    0.97559009105213    5.60711360793198
C         6.66188888078645    0.88222271024421    5.85923970340209
C         7.36538711167073    1.15681581722055    4.65325329184926
C         3.91088661336622    0.80910361371163    3.45413860242290
H         2.97756529778858    0.97444969672410    3.99800786592298
H         4.02360191538380   -0.27120208271798    3.32036773341356
H         3.82714315963265    1.25710668735899    2.46315045687505
C         4.17564852938440    0.65186616074779    6.54590366980137
H         3.32862844749715    1.32202743493592    6.38987556509445
H         4.48834330462064    0.74059646508370    7.58484491615334
H         3.82897062271647   -0.37224139265553    6.38965004076454
C         7.31284437385702    0.51131371728717    7.15702898676942
H         6.59541144051905    0.52313116277585    7.97545758663657
H         8.12988000869447    1.19158490720608    7.40544036816493
H         7.73056030508090   -0.49560091215603    7.09893191729537
C         8.85735807520513    1.13844145910196    4.52836531866544
H         9.30650845567277    0.60676847984826    5.36497546160266
H         9.27317762940950    2.14893442830372    4.50375158082708
H         9.15118771416068    0.63885998052295    3.60870007833613
C         5.99216919804963    1.07580715469336    0.48252059933951
H         4.94412866781803    0.83636399454025    0.62680312962175
H         6.52317313171656    0.13572661869022    0.37067121200857
H         6.08200024259050    1.61293696925371   -0.45782134839498
C         8.59521696077555    2.16991863708539    1.34153006589910
H         8.66843307808915    2.70605003254466    0.40045185573932
H         8.96980840829741    1.16621261219055    1.17140535088317
H         9.25317354860670    2.65275671623910    2.05332223614847
C         5.96798396413074    4.70899583459259    1.24548251985058
C         7.02598812070210    5.62796387884225    1.10731085726819
C         6.92207633609143    6.67983550985231    0.21060757573235
H         7.75000655327714    7.37149476559113    0.12084985874943
C         5.79113541112047    6.86946959268933   -0.56773806641135
C         4.74063638629772    5.97275361341178   -0.41842897021358
H         3.84500683563657    6.10866636405676   -1.01089510864824
C         4.81032703619351    4.90974009824091    0.46419105083836
C         8.26311398391415    5.48760498256428    1.94722516017790
H         9.04643094891873    4.97963902998236    1.38745877828404
H         8.04002267969718    4.88916141969389    2.83219189394801
H         8.64413249984945    6.46438344200016    2.24575564517026
C         5.69935855371775    7.99883104298057   -1.55108781089330
H         6.44643046520993    8.76021657653801   -1.33873114527863
H         4.71219324569572    8.45740196981876   -1.52308381492410
H         5.86737617295744    7.63154007141165   -2.56425884464465
C         3.64993062935842    3.96791411415685    0.60770435110787
H         2.78877399567045    4.32851794933833    0.04866597989038
H         3.37100250763274    3.85821793468168    1.66854634544798
H         3.92268380740141    2.98162785465005    0.23486719449526
C         7.90712664756515    4.49569655247063    6.13984291117228
H         8.24325860915130    4.91911351957726    5.19157207016097
H         8.42915153133067    3.54749031294932    6.31950088808463
C         8.08115307026138    5.44245450497374    7.33691057964975
H         9.00187226115472    5.22849783763110    7.87540204870410
H         8.11215067116698    6.48097125759021    7.00927292352749
C         6.82807090771847    5.17531299390585    8.18980999496551
H         6.20822001289047    6.06807518504506    8.26297109210888
H         7.07479573297994    4.84229214373186    9.19530278774742
C         6.08951603786660    4.08306344880582    7.40609840129239
H         6.38449192743589    3.08538127169862    7.75203241656463
H         5.00416819470264    4.18344092273787    7.44793241060630

