37
CSD_code = RIVPUH | q = 0 | S = 0 | Stoichiometry = C13H19ClN3Rh | MND = 4
Rh        3.78290933316340    7.28530181642816    2.15787379959928
Cl        4.27031037412448    5.18365924341100    2.54077072110027
N         3.38432969977765    9.04402457923865    1.82676543115402
N         2.25055461888160    7.02670709774386    0.83983645248322
N         5.17093187424377    8.16460515435632    3.36467458945219
C         2.38751019046815    9.35509828589491    0.96323753320503
C         2.07133015305152   10.68279925173623    0.69079466505608
C         2.79354527389517   11.68953766403451    1.31805996734970
C         3.81412842586112   11.36242981596511    2.20123986417474
C         4.09419165025775   10.02058694513805    2.44191469928110
C         1.78415800171502    8.17067772976226    0.44022639044048
C         1.62293371195287    5.83437979958798    0.30461284965212
C         2.64984855135696    5.01665356810930   -0.47926836764421
C         1.01388687651858    5.01714558506079    1.44432235583204
C         5.08862972592741    9.45868758227133    3.29978711342099
C         6.18535425414773    7.61001773723664    4.23937072496541
C         7.18070119445298    6.78964311893005    3.41826584788104
C         5.52382086057437    6.75907409699001    5.32367347067443
H         1.27571906809314   10.91700616595094    0.00112839137591
H         2.56239127662661   12.72437204822096    1.11910704833330
H         4.38673642086314   12.13020899690023    2.69734388351290
H         0.95935596247312    8.23532682094386   -0.26808955129907
H         0.81479625323648    6.13789698903143   -0.38291193966047
H         2.17017228343672    4.14263215923833   -0.91189034500121
H         3.44700203302010    4.69153534821735    0.18345417340147
H         3.07868955893332    5.61606967764417   -1.28036048374982
H         0.51517724887945    4.13965670656647    1.04149857155575
H         0.28758001138103    5.61497423777708    1.99211249737487
H         1.79529484522791    4.69773388343254    2.12836751035023
H         5.75093556572944   10.10285462249644    3.87646592919016
H         6.72753685310048    8.44005258650046    4.72421064741147
H         7.64419866261122    7.41165875739273    2.65460893446499
H         6.66774106718769    5.96210872259194    2.93585314176731
H         7.95620523877205    6.39459225105525    4.06903210768250
H         4.99298662234595    5.92767240960280    4.86833417645252
H         4.81797214793251    7.35806377118566    5.89620350839459
H         6.28183410977994    6.36875477335655    5.99747369036437

