55
CSD_code = RIVPAP | q = 0 | S = 0 | Stoichiometry = C24H27NO2Pt | MND = 4
C        13.70223392493870   11.83915309165436    0.78581774764204
H        13.28446105280604   12.82621493560508    0.64278180389440
C        15.04686832608644   11.58370547637868    0.51881397382568
H        15.67423705168826   12.38667902376103    0.16438300720621
C        15.56215423864737   10.31891665229523    0.70742741536514
H        16.60143638607229   10.10507989210985    0.50547540814281
C        14.71140041275378    9.30384392586421    1.16944733679198
C        13.36885701043354    9.64967307614812    1.41310062943395
C        12.43506580901574    8.68975479048872    1.88142759085576
C        12.84471063449446    7.36224156130297    2.11124353709500
C        11.87540401829185    6.46094474562688    2.57349231822366
H        12.14762421977601    5.43230854851487    2.76271293238354
C        10.58585301300536    6.89530419246437    2.78180750358666
H         9.84414729718954    6.19356573400405    3.13851622479568
C        10.20344530656154    8.22158725235030    2.54566180229823
H         9.17818504605387    8.51031452795774    2.72530218371900
C        11.11506337015973    9.15525335299443    2.08975738779667
C        15.09944328664003    7.95279116532600    1.41085468621720
H        16.12865979626756    7.68052225845164    1.22621218778290
C        14.20861954837176    7.03085329129904    1.85910258292670
H        14.52619508305672    6.01242521206300    2.03489529983883
C         8.27861270994378   12.24226102425799    2.02755596395334
C         8.64729185115804   13.52251060099944    1.61801449932734
H         7.88170870939820   14.27867502157273    1.62021226236828
C         9.92674491133656   13.90906692033510    1.20407523358783
C        10.13106789467702   15.37568203195959    0.78373855152028
C        11.59248875971797   15.59305582909668    0.38294224968865
H        11.74876311498110   16.62720906234154    0.08369837096314
H        11.85814439030428   14.94631266525954   -0.45029063800306
H        12.25260086842831   15.36923944929088    1.21803101699548
C         9.79381636025812   16.30024291363769    1.95842650855551
H        10.40351838951918   16.05098271242061    2.82443146083099
H         8.74817726052755   16.21927049958496    2.24262952487982
H         9.99247411047816   17.33444581352715    1.68323727334918
C         9.23211868961723   15.69032659243288   -0.41701584018101
H         9.40747997062351   16.71060932562883   -0.75318322666163
H         8.18010638277350   15.59121564205602   -0.16347899942519
H         9.44986562142288   15.01382594368330   -1.24091302880058
C         6.81418741053960   12.02120331796962    2.44994161971135
C         6.49056910802446   12.91611439413420    3.65149002169699
H         5.47337862517778   12.72711729437646    3.98884643395415
H         6.57538655734461   13.96979173517026    3.39969173923715
H         7.17120973022528   12.70451038392712    4.47315404744302
C         5.88576180971962   12.34839988924126    1.27521297434628
H         6.14478436838881   11.74273924606296    0.40963610522545
H         5.95135128877329   13.39550626182202    0.99232712265417
H         4.85473686736117   12.13433967396009    1.54978411412259
C         6.61223922663802   10.55806514136449    2.85055024458746
H         6.84273089265697    9.90131118424198    2.01548650866262
H         5.58023666000638   10.39328422133782    3.15242244374151
H         7.26592209438424   10.29844347579544    3.67939334994774
N        12.87646742984191   10.90011556307951    1.22276443574151
O        10.93383314702165   13.16001151257100    1.14172140641458
O         9.01980667235936   11.21686775098798    2.09660902801975
Pt       10.96215328409124   11.10061419919926    1.64512366174157

