43
CSD_code = RIVQAO | q = 0 | S = 0 | Stoichiometry = C15H23ClN3Rh | MND = 4
Rh        2.08070414837684    1.71666179030113    3.37777799461612
Cl        1.31541524791931    0.27203409697639    1.86501269864424
N         2.11459147285814    2.59626609383500    4.99103276249812
N         3.41762886073444    0.54449176156442    4.36462663537852
N         1.02145135709408    3.37872511703067    2.87096782248543
C         2.68083859415199    1.96822531326510    6.05307919848295
C         2.47284418147384    2.44280184486560    7.34597717634415
C         1.66117014987993    3.55351513272411    7.53434457212022
C         1.03637363174128    4.14996353611901    6.44715653521236
C         1.26954116360200    3.64320695922437    5.17092181454534
C         3.46649305301018    0.85279727401778    5.62796406101882
C         4.31548275621424   -0.46140862291923    3.80389423860793
C         3.50651864259809   -1.74303535151586    3.56799314258869
C         4.81771468452492    0.10369711661746    2.46846443556638
C         0.73491876426944    4.08902254553492    3.92282129713751
C         5.52636297732767   -0.77990424495747    4.69033299747689
C         0.66744878140561    3.84518435642051    1.53326642795656
C         1.88214561645745    3.56001469855868    0.64002327183395
C        -0.54574102919360    3.03810910956205    1.05432797227770
C         0.34310344382872    5.34282178146025    1.46021421223643
H         2.92925649727262    1.93967938087832    8.18395797116557
H         1.49585142328118    3.93805295287668    8.52885583108881
H         0.36730637933367    4.98544254274730    6.58065782255654
H         4.09726996523545    0.33661731671481    6.34272614634891
H         0.15650684575542    5.00499844615491    3.88294058340795
H         4.13994309705755   -2.50543298788315    3.12285402190699
H         2.67601291482861   -1.54076943065552    2.89750779415232
H         3.11205380463376   -2.11784410710262    4.51054310213542
H         5.37613761822272   -0.65271025384454    1.92406976758726
H         5.46365999079447    0.96275683633386    2.64379283617312
H         3.97042138356148    0.41741923494617    1.85717820011673
H         6.22198910821556   -1.39117475142219    4.12127242489237
H         5.24214311516141   -1.34226539056547    5.57723260667841
H         6.04068313450310    0.13129566432526    4.99091862423843
H         1.63938605348738    3.75368730754789   -0.40113457744499
H         2.17768093252088    2.51477339392034    0.73943276179093
H         2.71905013019412    4.19286050369419    0.93188606624121
H        -0.81533517200228    3.33616665376338    0.04481353933488
H        -1.39559469567050    3.20989557898806    1.71222951978391
H        -0.31110995564647    1.97732413987604    1.05643979210708
H         0.27066027097705    5.63163944317373    0.41494217747283
H         1.12979538174908    5.93563327113279    1.92370125079587
H        -0.60867472175459    5.57486394578284    1.93338247046349

