53
CSD_code = RIVTUL | q = 0 | S = 0 | Stoichiometry = C24H24Br2NiP2 | MND = 4
Ni       -1.00263361053681    1.63198147082956    4.34275919420690
Br        0.13790638498646    0.17074703153569    5.56868949588613
P        -0.25748346187482    3.21831283449233    5.61574645853882
C        -0.48589697736133    4.84323153413735    4.84291875279637
C         0.54149662475456    5.66704861681417    5.17463363505456
C         1.47908265539712    5.06444562510537    6.11882023739246
C         1.22309480133542    3.77899204426165    6.44976114718692
C         0.77463978457365    7.02636320117631    4.60566325320106
C         2.64340791268267    5.83774714419645    6.63853816549217
C        -1.49171088285279    3.14471472927310    6.95455777291699
C        -2.74008763418468    3.74127309586373    6.81817275556588
C        -3.67646779601095    3.60392284165219    7.82678358914820
C        -3.37634414502279    2.86851670835199    8.96145561637758
C        -2.13747810046665    2.26088339207973    9.08825174217231
C        -1.19344615335364    2.39264746125394    8.08735453012432
H         1.81222336787980    3.17551179559800    7.11833603073541
H         1.80059757703526    7.11982899123803    4.25189039404794
H         0.61705787048643    7.79272267347529    5.36517579729656
H         0.10046739974783    7.21347980060396    3.77387690597987
H         3.18771517701978    5.25748058628068    7.37867212233920
H         2.30930542214473    6.76912856557052    7.09394235646697
H         3.32544032687053    6.08875842186612    5.82604181090652
H        -2.98409249166423    4.30313548312828    5.92618157727541
H        -4.64692619233190    4.06635118546183    7.72053220020976
H        -4.11403030799673    2.75945688011773    9.74224704298593
H        -1.90800819404932    1.67338333644902    9.96425070690706
H        -0.23747048645273    1.89407951166685    8.16778628417081
Br       -2.14322852516939    0.17076881695832    3.11685131693181
C        -1.51912360465009    4.84329501065853    3.84241697484764
P        -1.74773092123595    3.21831621201296    3.06976810064105
C        -3.22836566705056    3.77899510071811    2.23585165319624
C        -3.48439760915608    5.06442037112409    2.56689757042561
C        -2.54665754581743    5.66706438945272    3.51092861806880
C        -2.77979870855701    7.02640526901993    4.07989301150801
H        -3.80593780552122    7.11887883034709    4.43552415696158
H        -2.62399497257922    7.79295060455524    3.31915645245881
H        -2.10379345321325    7.21410102572780    4.91091916202017
C        -4.64864073959063    5.83779119792937    2.04711242324526
H        -5.19300392155467    5.25750633331715    1.30704208151190
H        -4.31447733826230    6.76910281233413    1.59160754496024
H        -5.33061803300550    6.08893410881520    2.85960370293341
H        -3.81747719430205    3.17555727243707    1.56723298445510
C        -0.51351445661997    3.14471830200978    1.73095560329769
C         0.73486906456747    3.74126077501277    1.86734314473943
C         1.67124427181410    3.60389434087369    0.85873236050899
C         1.37110576742663    2.86848459889504   -0.27593449342856
C         0.13223140217080    2.26086337380083   -0.40272451404272
C        -0.81179756214663    2.39264716677949    0.59817038187236
H        -1.76777871255955    1.89409058944201    0.51774797315932
H        -0.09724787477234    1.67336218661175   -1.27871978683776
H         2.10878973254420    2.75941313355017   -1.05672959789453
H         2.64170667280051    4.06631141376811    0.96497943553329
H         0.97887886369373    4.30312180136730    2.75933416354664

