35
CSD_code = RIVVAU | q = 0 | S = 0 | Stoichiometry = C8H16Cl4N2O4Pt | MND = 6
C         8.50423348437008    7.14077667633452    7.72362036808492
H         7.81886590574289    7.10100709766322    6.87104054222470
H         9.11583093614759    8.04641901913629    7.65688330745307
C        10.01441711133060    5.74103241158329    6.39097827598280
H         9.28232654212366    5.79553493136517    5.58134143582255
H        10.45121654737332    4.73434710033818    6.37008578661808
C        11.12684971672662    6.75722344349466    6.17318630107879
C        12.77171281640088    7.48150353271408    4.67287069430766
H        13.01785764051798    7.29794163948415    3.63084663384228
H        13.62620424010399    7.25621717112939    5.31306440093345
H        12.47955440060590    8.52207555200487    4.82415195257984
N         9.35445115888887    5.94381404877351    7.67447135304299
H        10.08060553066660    6.03215642138663    8.39535572431538
O        11.68538460608198    6.61222390943788    4.98171288186070
O        11.44830035555069    7.57587629610426    6.99600668119728
Cl        9.32967881642154    4.44893319089709   10.39506083574487
Cl        9.51703391548842    2.71180466290853    7.55927894083893
Pt        8.10661708759728    4.33320109291734    8.37585818910924
C         7.70875470892590    7.14094442027524    9.02557498075784
H         8.39411478562469    7.10107866284457    9.87815711351019
H         7.09726044128987    8.04664970395510    9.09226915417174
C         6.19857619594375    5.74126472317116   10.35828205367366
H         6.93072860710733    5.79570373409385   11.16786586710538
H         5.76180769777185    4.73457696336510   10.37917772077161
C         5.08619453299641    6.75743559097971   10.57613470833995
C         3.44132812116591    7.48154376392956   12.07650190564411
H         3.19517826648904    7.29786910182694   13.11850427032629
H         2.58685195255038    7.25632541819355   11.43626218324146
H         3.73351585829859    8.52212202851939   11.92532895990999
N         6.85835837038101    5.94414355405082    9.07473065636149
H         6.13224632107627    6.03233763170639    8.35380513070648
O         4.52766499463383    6.61230727984767   11.76759972277225
O         4.76468529139374    7.57609484553453    9.75335047537295
Cl        6.88487436045718    4.44861811611373    6.35556482604634
Cl        6.69581868175569    2.71049626391451    9.18807596624832

