53
CSD_code = RIVVEX | q = 0 | S = 0 | Stoichiometry = C24H24Cl2P2Pt | MND = 4
Pt        2.68197135288748    2.26006199034834    3.03865947239532
Cl        1.80379559402777    0.66142009972093    4.40711315724161
Cl        0.71732141414808    2.48017756514129    1.89812619454691
P         4.62805849293816    2.30531368318632    4.27505716562844
P         3.75018292754697    3.68340138249179    1.57174403138557
C         5.85403161831671    3.17653792428218    3.25777639777626
C         7.06582542054015    2.57731047285542    3.35100308670093
C         7.08026534369124    1.45423618351909    4.28495248109948
C         5.89062538064755    1.18443080496989    4.86907840032137
C         5.30033718259185    4.17292575805535    2.37989030068563
C         5.55430916461942    5.48767667754200    2.17216587944194
C         4.56803032782595    6.13302882267623    1.30907817358863
C         3.56366713964163    5.32891027538794    0.89221734167415
C         8.26916139144057    2.95194568931345    2.55286987744765
C         8.33065594660734    0.68133626252059    4.53492815929805
C         4.33694392536646    3.48335933706138    5.62963307158115
C         3.10251986290258    4.12046182741487    5.68868652351792
C         2.85836535189332    5.06218465591330    6.67189194663462
C         3.84369054828311    5.36837675688679    7.59618951747151
C         5.07485479003636    4.73331222847625    7.53789079662344
C         5.32651259301520    3.79206045987038    6.55706763921796
C         6.67774684166266    6.25000052361844    2.79030616179484
C         4.68891766925745    7.57563615079557    0.95163378585530
C         4.33460928756111    2.64801858546691    0.19564027861608
C         4.02694884016642    1.29251769056042    0.21725143688014
C         4.49457400735778    0.46334969347103   -0.78647356938338
C         5.26880894927823    0.98484875481715   -1.80983657629740
C         5.57754005800639    2.33652571360615   -1.83057642676756
C         5.11372818212238    3.17114736749290   -0.83101697185469
H         5.70527616128835    0.39206873776921    5.57367104437404
H         2.74417813628355    5.62738554508786    0.26141111207435
H         8.65625716122101    2.08346287184719    2.02163675232250
H         9.06148663190501    3.32615403916213    3.20164940811556
H         8.01516923649454    3.72066656440829    1.82797537469082
H         8.16809642698984   -0.07536003406646    5.29758042301804
H         9.13187665534831    1.34465072167453    4.85839296750364
H         8.65646411593108    0.18815080363438    3.61957011530484
H         2.32924376410908    3.86056304368217    4.96593285626752
H         1.89783605743996    5.55292454597288    6.72025653715569
H         3.65231530498374    6.10017689337276    8.36702352853674
H         5.84057807827446    4.97237860028850    8.26159043327953
H         6.28385149110760    3.29269629488991    6.50711583915408
H         6.30022815068734    7.13610583712649    3.29853259807422
H         7.38565749689302    6.57888321717340    2.02884697596110
H         7.20142290444652    5.62840852944523    3.51191964802404
H         3.91156055581849    7.86312319770574    0.24898455139930
H         5.66229656666867    7.77976469483658    0.50746427665519
H         4.59487777953033    8.19244386288013    1.84498488534999
H         3.40627001575615    0.89594372518617    1.02013144905047
H         4.25094902161181   -0.58834992248571   -0.77265232533763
H         5.63050102006876    0.33896273912748   -2.59621456275668
H         6.18056066883775    2.74045287442460   -2.63075331852758
H         5.34924699385769    4.22602927956139   -0.84169830277672

