31
CSD_code = RIVWID | q = 0 | S = 0 | Stoichiometry = C12H9ClF3N5Pt | MND = 4
Pt        9.89227071444353    2.17524930074665    5.89649279261610
Cl        7.64823650999085    2.10712816683112    6.01262570686212
N         9.97446408091649    0.17644972695675    5.87909186569756
N        11.14967094594863   -0.45794032639250    5.79812247007346
H        12.02836953178639    0.09489732934789    5.75216968277835
N         9.97917856095380    4.17820779024676    5.90316057710412
N        11.85858962519101    2.40181164034005    5.79535663359106
N        12.88200211694144    1.58359322697493    5.73746555329189
C         9.03022296947471   -0.75922076242269    5.93194628304526
H         7.99069452077066   -0.50304224887323    6.00059224045981
C         9.61833050966838   -2.02134428234599    5.88360169488578
H         9.11976829964447   -2.96724102745435    5.90782441773210
C        10.97458376267390   -1.78296712216272    5.79857617660178
H        11.80097944836321   -2.46170925626625    5.73922377908293
C         8.94943255116802    5.02100123035157    5.96246436037189
H         7.96485793198421    4.57394646074513    6.01305236413595
C         9.11145668389843    6.39440179282668    5.96034020674334
H         8.24578148743772    7.03414258382963    6.00993228383853
C        10.39316191450409    6.92460130003764    5.89389816372064
H        10.54950369136161    7.99225391865322    5.89046198663918
C        11.46686830823615    6.05788402128190    5.83218983876531
H        12.48070655194979    6.41995119308422    5.77931321317165
C        11.23471626823799    4.68492174480083    5.83834134017602
C        12.27275138250439    3.68825218398968    5.77867585163015
C        13.66760949137541    3.69091973850328    5.70427505700842
H        14.34147757731808    4.52043908756212    5.66924121277764
C        13.99212050494877    2.33769845636018    5.67928026109586
C        15.33572808820128    1.70964219205709    5.61991233243266
F        15.74988753847062    1.24993011992347    6.81927609313465
F        15.38048229358195    0.65437786177514    4.78830422325410
F        16.27809613805404    2.57006395869172    5.20459133728161

