82
CSD_code = RIVWIC | q = 0 | S = 0 | Stoichiometry = C33H45NRuS2 | MND = 9
Ru        1.35792044214428    2.37318894129750    4.61021404122272
S         3.64341181538306    1.47653621811051    4.37923324781901
S         1.53896287598014    1.27608279526406    6.78407699047749
N         2.57219557375949    4.90781780147809    5.79282317754880
C         0.61561797669273    2.50900895178789    2.41055592283866
C        -0.09744924823201    3.40455602523296    3.26515361635105
C        -0.98224272456863    2.87991908135942    4.26645074606930
C        -0.85422440715987    1.52996074661069    4.63926986889165
C         0.00211828813815    0.65523296837119    3.89021761413262
C         0.58293531810193    1.11399428722631    2.69036355297766
C         1.16701471799150    2.97567871237470    1.08927501376874
C        -0.15765386952208    4.87743065214690    2.93743428860521
C        -2.07149660099394    3.77021254061258    4.81145945178249
C        -1.66024648169004    0.92977565825150    5.75506632737893
C         0.08973061359399   -0.79269882506822    4.29567918407973
C         1.05879317202796    0.15933261133144    1.63133527176536
C         4.13473273693612    1.50320138731022    2.69335718594455
C         4.40492954596786    0.27940297166885    2.05783409401673
C         4.83701905759446    0.28546765143862    0.73888551005456
C         5.01356563378107    1.47245767610819    0.05135445619128
C         4.78369619210266    2.67589591726152    0.69540275401602
C         4.36039308921469    2.70862994212606    2.01485177723373
C         4.26648712873002   -1.01494268819364    2.79777819722576
C         4.16409310752203    4.01014675483834    2.72189851151803
C         2.17835318617516    2.34588296169459    8.02777250814531
C         3.47514206356411    2.13866191454940    8.51070716793830
C         3.92639793892889    2.92025710682308    9.56452033789389
C         3.11202399355095    3.87826059739211   10.14254366655148
C         1.83258569013318    4.07685815385799    9.65449139621298
C         1.35218079402956    3.32006219727216    8.59580342945953
C         4.35127668641543    1.09583174310685    7.89935603304359
C        -0.02567568355799    3.54313095135292    8.05815477606009
C         2.13008818798024    3.92711558669408    5.32761963057096
C         3.32722844978000    5.99228699148014    6.28813117850326
C         4.62024797812426    5.43121865256234    6.88539673230519
C         3.62930033888065    6.94155193475754    5.12263370027080
C         2.49918140245577    6.70688234631037    7.35886375437517
H         2.04875448084533    2.40802363699959    0.80427641527587
H         0.40689182081553    2.84034728964780    0.31611535547433
H         1.44135039208058    4.02505840030154    1.10543720960789
H        -0.42556631825102    5.45894295971297    3.81602538236933
H         0.80783888467006    5.23996563526272    2.59117205524439
H        -0.89352670054680    5.06506741940893    2.15286868036362
H        -1.72096054802912    4.39521769201258    5.63296832066822
H        -2.44229068879683    4.42161756866018    4.02212277371584
H        -2.91192959627965    3.18279800533552    5.17098921739510
H        -2.31250978293615    1.65353850904905    6.23165467451209
H        -2.26061422677067    0.09798229556028    5.38709438620213
H        -0.98136579812398    0.54914801826035    6.52109743459694
H         0.19046610692035   -0.87069944608750    5.37683093581966
H        -0.80448954019711   -1.34099339968657    3.99071547915680
H         0.96194681533435   -1.27183158778901    3.85898698155538
H         0.59905247249060    0.43048937541195    0.68068101551721
H         2.13957430924117    0.20192313814898    1.50036028131353
H         0.77993379146151   -0.86455135421737    1.85868710211259
H         5.03844564203667   -0.65635561227353    0.24749604916757
H         5.34442202591617    1.46109858372258   -0.97683485773622
H         4.94828226264462    3.60677867571282    0.17027614078146
H         3.45020955317735   -0.95862665093178    3.51565922573101
H         4.10412912452983   -1.84419951683716    2.11190711028403
H         5.17558337402662   -1.20843275111160    3.36699093788011
H         4.84317133308898    4.06102220544061    3.57324636845491
H         4.35123547299786    4.85109373800823    2.05779680331185
H         3.14784699978668    4.07535494975360    3.12327280938817
H         4.92783527875739    2.76841698817625    9.94258277348902
H         3.47433145716379    4.47098749508413   10.97031072660642
H         1.19041291641580    4.81896016932850   10.11041342394496
H         3.93963657675864    0.10496595741877    8.08766167629210
H         4.38494403456484    1.23059730524741    6.81874520391526
H         5.35941234166920    1.14522841706309    8.30294768068684
H        -0.46824547918003    4.44617261384897    8.47284459382543
H         0.02725565486464    3.62512247961183    6.96877731833211
H        -0.66276077988977    2.69224829987489    8.29722938547535
H         4.38964638978571    4.75418740824028    7.70432015920698
H         5.17235404700978    4.87588344463827    6.13103312757021
H         5.24125998775555    6.24220856057267    7.25659022623238
H         4.19412740431530    7.79725168906783    5.48276916953022
H         4.21162164702294    6.43130453269007    4.36015518148027
H         2.70417699770834    7.29693423210389    4.67369028156427
H         3.05861300872973    7.54845916347277    7.75838347966359
H         1.56684333495346    7.07423096638124    6.93523099782011
H         2.26971853988253    6.01847258312105    8.16815519258277

