63
CSD_code = RIVYIG | q = 0 | S = 0 | Stoichiometry = C18H31BCl2N6O3PRh | MND = 6
Rh        5.93720877013465    8.06144570189623    3.56819678396745
Cl        5.59494841294259    9.85344736203679    4.92871928349237
Cl        3.82647100291132    8.29669805596449    2.73419923188681
O         3.78293246372670    5.80080971550818    4.58079132738292
O         4.27219688266292    7.38317451599926    6.47422621021578
O         5.85423481860045    5.74177756604888    6.04151296341360
N         6.39165582814130    6.50816225786548    2.19419038163828
N         7.65725303299929    6.51428982656326    1.72142624781461
N         7.83947881756762    7.91044141452783    4.40921505354254
N         8.86184277525680    7.65385345444582    3.57339615450501
N         6.74991174499990    9.29203946049911    2.17650078420646
N         7.95683603203666    8.96030342044959    1.67735921593930
B         8.64104560241684    7.64263088003485    2.05858482289725
H         9.65773725634824    7.50486352924961    1.48403582842211
C         4.31702985460070    5.12921631072034    1.79406190338467
H         3.72423013410539    5.98403749644797    2.10121317285828
H         4.22957213937868    4.35579205954291    2.55552153344762
H         3.92809829578650    4.73302377639123    0.85838722947878
P         4.94767877859336    6.76103495974092    5.16774856582505
C         5.73909326603231    5.50516667173281    1.60372809551499
C         6.62173651667417    4.84269726151737    0.74535062005873
H         6.39652668452878    3.99489229545905    0.13121091883987
C         7.82383537202574    5.51137018250860    0.84172710557177
C         9.09782145602341    5.22494940901140    0.13298774914515
H         9.36610733127359    6.04927569450192   -0.52525859218928
H         8.98145827557571    4.32446494184709   -0.46398758785452
H         9.91123018729437    5.07834306764878    0.84083319240879
C         7.56665402931774    8.34351344303899    6.87744377073958
H         7.36383851416566    9.41360952965421    6.89697409909445
H         8.16217749412505    8.08220507304326    7.74939477951890
H         6.61239262628401    7.82848886776422    6.92649663762854
C         8.32548849032110    8.00209721932568    5.64853439214604
C         9.70420248149347    7.77561894344104    5.59624398331365
H        10.38261811505244    7.77851658682308    6.42481303506713
C        10.00928126989624    7.56352447568369    4.26679381445695
C        11.33116725811783    7.27863595360324    3.65153795890958
H        11.30405591466096    6.34518331150349    3.09250182566778
H        12.08303529087123    7.20182028649545    4.43219587009814
H        11.61681596970013    8.07472971487283    2.96640236899765
C         5.09400404584069   11.15732487915256    1.89525676836301
H         4.94125256047481   11.29033717403290    2.96398373788860
H         4.25462288482865   10.57871773378003    1.51340588486605
H         5.11365531459866   12.12847384977042    1.40737674675638
C         6.36993368300883   10.44762577991808    1.63232402875464
C         7.37491843353609   10.86844587705540    0.75633568890633
H         7.37250992285106   11.76179729798359    0.16597407945043
C         8.36113668717101    9.90524346055621    0.80983940568829
C         9.65298771657217    9.86117942326538    0.07649534415780
H        10.48968978063221    9.81715040468777    0.77132024776300
H         9.74931251801190   10.75455546054653   -0.53435486468651
H         9.70178833640074    8.98654835737367   -0.56994761134083
C         3.18468305742465    8.29748989404997    6.34429246648111
H         3.55234033885567    9.31367685075301    6.48837827471615
H         2.46106404207648    8.04513402588585    7.11973269590660
H         2.71790595114348    8.22551919843254    5.36001905108871
C         3.03371687614580    4.97351399662920    5.45848146891051
H         2.03709795650286    5.39633150074453    5.59467788118832
H         3.52512911928747    4.88113242932900    6.42920530821250
H         2.94800181638493    3.98986812381927    4.99465986328770
C         6.79847552549277    4.90463908656197    5.40749747134047
H         7.70605439292122    4.90583898158923    6.01349979386727
H         7.03560255308912    5.25399888018803    4.39972426560769
H         6.40501730026387    3.88731264069918    5.34301127129553

