47
CSD_code = RIVZAY | q = 0 | S = 0 | Stoichiometry = C18H21N3O4Ru | MND = 6
Ru        5.04861983101628    7.20428305493121    3.09152045511050
O         6.94332283755917    6.35838390995677    3.12840367963657
O         4.45139416367980    6.12967697725977    4.75281564153953
O         3.16916468804876    8.07527422733324    3.08154643321626
O         5.75004552310456    8.55477319104355    4.48968859906161
N         4.47486512096716    5.91263195983054    1.75427892981557
N         5.57942408371986    8.20133500718949    1.45153519441722
N         5.82142604041704    8.20637343740264   -0.73737306524780
H         5.79793633915064    7.91119739316472   -1.69850291968040
C         8.79467516686822    5.21262137051796    4.03459951425628
H         8.86301967560164    4.12727625560334    4.05273572789289
H         9.33380422413031    5.60538546999357    4.89351124043310
H         9.24967100029617    5.59002717562880    3.12257807783742
C         7.34000026706645    5.65058747648753    4.09309620802939
C         6.60375192480259    5.20944045502593    5.19377753236282
H         7.13335121336470    4.61583268258393    5.92496906786064
C         5.25262153720673    5.47001134050676    5.45864963243638
C         4.68537713062604    4.86743855369110    6.73370262184016
H         5.21076539249960    5.26795385261011    7.59772514379242
H         4.80926212618039    3.78668494366809    6.72813141066998
H         3.62908052750075    5.11218397724414    6.81156155095027
C         1.38909124130997    9.42347018171707    3.83795389119856
H         0.89475087582224    9.23129061427660    4.78728217775567
H         0.87660791608007    8.87866758475688    3.04937226638344
H         1.33842910323166   10.49059046378476    3.63389594896485
C         2.83831447453552    8.96850363484189    3.90695851861998
C         3.64191290307218    9.59725519329865    4.85969188028797
H         3.16447436984157   10.33883537644424    5.48385475610733
C         5.00336974957421    9.36187749372034    5.09401672979075
C         5.65387441239252   10.18888073944183    6.19141973119067
H         5.16078754940814    9.99869587159023    7.14200542977901
H         5.56566449563129   11.24944955266541    5.96600588872267
H         6.70446625282033    9.92140860549206    6.27095313842617
C         3.85085055338007    4.75951630883867    2.00094413760473
H         3.62452014783990    4.56534474556376    3.04128999775716
C         3.50339984004712    3.86211221040084    1.01243835929848
H         3.00329041929316    2.94263962357583    1.27178209712004
C         3.80460892970495    4.15653582377624   -0.31654948889603
H         3.54660944513767    3.47065876372974   -1.10789679672090
C         4.43688086547282    5.35332048990896   -0.59509105612369
H         4.68161040347408    5.62789926748687   -1.61026424187699
C         4.75896506114434    6.21213274863840    0.45308667197331
C         5.38192843464503    7.49778870628401    0.33776163912043
C         6.31197699415325    9.39146141085026   -0.26808156506908
H         6.72367569717859   10.13429380898458   -0.91956593360557
C         6.15358591400564    9.37227722580051    1.08961500532343
H         6.41917513699445   10.11512084245994    1.81527014063801

