34
CSD_code = RIWBUU | q = 0 | S = 0 | Stoichiometry = C13H15CoS5 | MND = 7
Co        3.26789644979875    9.27946564981470    7.88650248517362
S         4.77357420637735    8.04226247687130    6.96542784208250
S         4.74156952728242   10.47036097696602    8.91423937563872
S         7.77100681251987   10.37072187961645    8.94869741040161
S         7.80127086573565    8.07877273537146    7.10927001559930
S        10.36660655102266    9.20022406964056    8.10191194293353
C         6.23229552639868    8.70779471495923    7.55594471216079
C         6.21822843310265    9.77333932634515    8.41111067017039
C         8.73903207022670    9.21570480004536    8.05593205785430
C         1.58977126731749    8.18759440781683    7.35767367677009
C         1.53783921550095    8.53236272684370    8.74600562693127
C         1.56470660952043    9.96070415939137    8.84533678238510
C         1.63685122266060   10.49538368600640    7.52535693235619
C         1.65289846370055    9.39611102884465    6.60291408783327
C         1.43084719000297    6.82128754814120    6.77614014493322
C         1.31037192903815    7.58226318714009    9.87442520744588
C         1.37255433030397   10.76636335384264   10.08775543198737
C         1.52140385732613   11.94031289921944    7.16976661744289
C         1.55711656651324    9.49479608076182    5.11680866531470
H         0.40738655047376    6.69683568654230    6.41957528514454
H         2.10494647384697    6.67603572551227    5.93494272192136
H         1.63520516718250    6.05256629044952    7.51552234892338
H         1.72061267480196    7.96887569723392   10.80392840569130
H         0.23698489085914    7.43644753363897   10.00941577837155
H         1.76240539862960    6.61444051262801    9.67249115998642
H         0.32839908128414   11.07429229550185   10.16079280576874
H         1.62533741970799   10.19142231341821   10.97394836317238
H         1.99141959217013   11.66042821434968   10.07025992501147
H         0.46608552169734   12.21505117735425    7.12446944966070
H         2.00322369580258   12.56564421318962    7.91698894289138
H         1.96899373589248   12.14615390481093    6.20106593582081
H         0.50542886209562    9.53811436587102    4.82762139368335
H         2.00649371192928    8.62806709732439    4.63926793536184
H         2.04823612927269   10.39119926454017    4.74668986317693

