100
CSD_code = RIWJOX | q = 0 | S = 0 | Stoichiometry = C35H59BBr2P2Pt | MND = 4
Pt        2.25755530189912    6.36343550483622   12.57391603356613
Br        0.00333700903229    6.44993378535063    9.97256634609277
P         3.79441346440267    7.31350428475347   14.20460007508880
B         0.85853669571377    5.46854086925744   11.37246098205496
C         0.44914927094108    3.95855090478883   11.57660863627551
P         4.11860028317065    5.45196366717514   11.63044657842014
Br        0.45129957225935    7.80931964350782   13.39929891958014
C         0.42679671601833    3.03586276282207   10.51118225972952
C         0.08708359582591    1.70896386911410   10.73232158077269
H         0.08234920107802    1.02613766446839    9.89297093240212
C        -0.24924263662423    1.23423044717967   11.98833045106910
C        -0.21978282965272    2.13222515318910   13.04265931813245
H        -0.46858639826360    1.78756743457696   14.03713009346231
C         0.12673359656955    3.46026721878765   12.85720683099949
C         0.77094790605816    3.41671928126218    9.09937778288613
H         1.04512358362154    2.53202863596189    8.52702289423273
H         1.59444227563102    4.12321594845281    9.05571219970758
H        -0.08859866328322    3.87575022946923    8.61127333167773
C        -0.64153658819151   -0.19542537785459   12.19986490006605
H        -0.20239853374873   -0.83677590424606   11.43875211485668
H        -1.72604840937611   -0.29491735515667   12.14071562669125
H        -0.32632505323508   -0.54270981219785   13.18170968706572
C         0.14056722682431    4.35288155769593   14.06064506697533
H         0.07548712766087    3.76881995112574   14.97624918351509
H        -0.69768930266274    5.04936562394837   14.03836610182403
H         1.06790763787719    4.94414079287744   14.08453735089989
C         5.52794066666521    6.98203927858527   13.60362922688264
H         5.84029453228302    7.86244646824800   13.03687099884241
H         6.20684537801493    6.88043834528493   14.45558131836937
C         5.60697127400032    5.73962601417796   12.71385642598993
H         5.68763473320657    4.84783170216074   13.34060002399126
H         6.49930834685967    5.77973950757060   12.08050363632905
C         3.81646089306289    6.56500653163348   15.91205540238963
H         4.67018526780315    6.96470110124430   16.47438365505730
C         3.96755582725169    5.04805442925689   15.78907798807743
H         4.93798219444192    4.80541423770054   15.34961366520109
H         3.18920023712500    4.66194869589760   15.12267679715482
C         3.85586578148197    4.35980509343720   17.14609007272808
H         3.94027594867272    3.27857379128390   17.01436591033493
H         4.68172604671170    4.68391231019689   17.78537342040159
C         2.53283374817138    4.70666449230195   17.81829508304262
H         1.70609508425348    4.34704081994142   17.20222505227953
H         2.46761491281235    4.21465753845154   18.79075412968243
C         2.41926864884053    6.21743877296658   17.98442021080207
H         3.22429021513853    6.57216817454580   18.63399826697107
H         1.47001983349341    6.47259181909627   18.45870255188746
C         2.51187664633407    6.91366206426113   16.63056413147643
H         1.66483454832377    6.60748800701323   16.01102563902318
H         2.43953813231759    7.99294872138362   16.77755998799632
C         3.78199085587883    9.13820362397134   14.54817964023108
H         2.82415731850054    9.30150891394441   15.06126013711404
C         4.91285081190607    9.67298072358892   15.42294214246327
H         4.95551290009755    9.13806528293665   16.37380610961471
H         5.87205032250167    9.53978492227323   14.91570854129487
C         4.69037119937623   11.16021758265907   15.69626433435162
H         5.50719633542590   11.54649103741929   16.31054226304075
H         3.76130892869860   11.28643431398948   16.25700466351333
C         4.60095559596369   11.94768193532966   14.39227060393497
H         4.41860110406692   13.00178612682560   14.60949628052724
H         5.55348280933775   11.87733144071376   13.85999874443701
C         3.48486889664162   11.39602813928371   13.51019642754177
H         3.44515289338915   11.94663615366868   12.56831360033037
H         2.52333497098250   11.52147912513128   14.01171361595512
C         3.71739895316085    9.91517669998701   13.23260140060692
H         4.65487471169416    9.80446557816789   12.68054339294098
H         2.90524914793740    9.52574182094676   12.61294906773202
C         4.59989018160337    6.31593615743168   10.05526226367364
H         5.67891038726925    6.18603394790068    9.89502043373329
C         4.28130753142127    7.79942197672272   10.25484771210354
H         4.85535775476752    8.19033152099606   11.09653072986400
H         3.21347579427042    7.89655653061773   10.49501972761360
C         4.58965043495829    8.61809784368078    9.00678696051210
H         4.31893701613343    9.66117614505596    9.18012796330919
H         5.66364522853903    8.57942335160608    8.80223693961327
C         3.82340031791202    8.07059737087737    7.80828808051928
H         4.06475534982985    8.64832661088442    6.91454404182560
H         2.75075784810100    8.15960905281518    7.99024765421401
C         4.17635851051956    6.60312441114628    7.59441554777452
H         5.24335644601076    6.50857228162253    7.37409543789330
H         3.62103475372179    6.20612598947499    6.74312763352334
C         3.83639262477102    5.79150706707766    8.84189002726718
H         2.76601551223656    5.88884361058869    9.03314799694463
H         4.06829298855040    4.73887976222145    8.66522996280248
C         4.20927402888980    3.63697790007555   11.27228494623452
H         3.45650624755857    3.47430731545479   10.49007283320334
C         5.55837048342524    3.12309184299674   10.77550986437247
H         5.88973263233564    3.68778268019132    9.90131722002613
H         6.31293752973915    3.23617752751050   11.55706120500149
C         5.43176237532374    1.64325277133868   10.41542407361284
H         4.71245346874942    1.53126206579784    9.60097508843700
H         6.39498165990077    1.26513237341980   10.06619252156549
C         4.96027477666126    0.83228411520607   11.61960394088880
H         5.71200314411817    0.89048711351932   12.41089991164197
H         4.85402013158622   -0.21698109947927   11.33869645158967
C         3.63043351889282    1.36752722094395   12.14395595815099
H         3.31975351987778    0.80135215101666   13.02371348217883
H         2.85662108854607    1.24850895547669   11.38321188354830
C         3.75737576147505    2.84502586456646   12.49954653463993
H         4.48128909772089    2.95654732710870   13.31051456950984
H         2.79307315222606    3.22779212547521   12.84366056364381

