45
CSD_code = RIWKOY | q = 0 | S = 0 | Stoichiometry = C11H19B10CoO2Se2 | MND = 8
Co        0.22388998308208    8.89535313869957   11.16567974404584
Se       -0.44583806994920    9.56786810093086    9.09086958654150
Se        0.29196033991522   11.08080137448309   12.07870245446534
O         3.00664079965569    7.62395090715372    8.97279304163271
O         0.81901086584269    7.29646953523985    8.50392422164693
B        -1.21689147971183   12.62834965404626    9.77271946809052
H        -2.15937280214159   12.18484999264565   10.31222739365260
B        -0.95278663928557   12.57831679709712    8.03072703089754
H        -1.80309502779022   12.12940006453007    7.35411731923155
B         0.72517020316118   12.09171634147587    7.71843860078754
H         0.93109299996039   11.32000148305296    6.85320469776976
B         1.54048038248018   11.81670030893157    9.26524742355434
B        -0.12013641584292   13.81910636292188   10.47127614745530
H        -0.38620688083039   14.28309773064697   11.51508878350315
B        -0.92539122064891   14.12388875138660    8.90681371930578
H        -1.76920857433929   14.93100277060485    8.78967488949178
B         0.28038661802008   13.79537863100148    7.62165701605161
H         0.25792582510868   14.36588109281420    6.59570153354206
B         1.82956674323694   13.30788540407677    8.39182642246720
H         2.87675408192225   13.53767340785636    7.91474678974909
B         1.56128471133381   13.32209215714300   10.15866299663917
H         2.35726419795501   13.46853642723113   11.00714754473092
B         0.80092699317753   14.56485373353873    9.14601489654333
H         1.14040172132871   15.68741643356444    9.19965476449897
C        -0.14376521864035   11.50578167671495    9.07310548362653
C         0.31952665278826   12.17752412268935   10.43688393295791
C         2.33142783869625   10.44531485444853    9.54555873117449
H         3.08425842901272   10.23134528431071    8.77942421108905
H         2.88718947483513   10.48777771172432   10.49032265595925
C         1.37835130867887    9.25891241155106    9.60850330674503
C         1.86369834996756    8.00287210760257    9.03541261060840
C         1.12257918724426    6.02977568691523    7.94987865052806
H         2.08031101841152    6.07426864913459    7.42771359188757
H         0.31865555279377    5.78838110317100    7.25881792662300
H         1.18157626678249    5.27551542613280    8.73843138870185
C         0.98817222533449    7.77116452887989   12.74382581242126
H         1.87448599781489    7.94038823638646   13.33433858617978
C        -0.32518939995107    8.22726117689557   13.06957609228524
H        -0.58307247013273    8.81778691434144   13.93668750162240
C        -1.23015997933446    7.65911413255868   12.15361206519034
H        -2.30462517719502    7.73814560973543   12.18969271422732
C        -0.48531483028689    6.85027746806714   11.26257934064307
H        -0.90203921036496    6.22043796537322   10.49247008656602
C         0.87403691543100    6.89426687664417   11.64670325000507
H         1.67386771316867    6.30349745520346   11.23124557423104

