55
CSD_code = RIWKEO | q = 0 | S = 0 | Stoichiometry = C15H23B10CoO4S2 | MND = 7
B        24.87724208952629   11.88193512927081    8.50248614090756
B        24.27127916574696   12.67175409404487    7.02742449062292
H        25.01383612234801   12.76375214860351    6.12346800442556
B        23.24983486344385   14.06208399788819    7.42399771832466
H        23.35800140077965   15.02065676339988    6.76284085580166
B        23.13599755244121   14.25567055166249    9.15434325756816
B        22.48280820561886   12.77049525641652    9.85617305674358
H        22.00915065937384   12.82160423578127   10.92796918222633
B        23.48544103143782   11.35476693510084    9.44557416132188
H        23.62039102874485   10.52672049952608   10.25581985008476
B        23.51315685341353   11.18015042374482    7.66236003102881
H        23.62931827148425   10.13965101315413    7.13414487660152
B        22.51316816595135   12.50309976215451    6.98538886534443
H        21.93488785464590   12.35772190723310    5.97534250180310
B        21.82316272019393   13.44912829673553    8.32764741732334
H        20.77165485950819   13.95716729468328    8.27780407311032
B        22.02255927575269   11.69116503482126    8.51112865214132
H        21.08742165376796   10.98558086071707    8.57941353103328
C        24.59429614932639   13.61726458376205    8.40628767391774
C        24.17450079135767   12.89151056241776    9.73215858915834
C        23.32759549043137   15.56551797654378    9.98932660142838
H        24.02619317599475   15.48321782269014   10.82485752457788
C        22.77569871034029   16.77953394070043    9.87148198041427
H        23.02321839602793   17.57183360066416   10.56571775588460
C        21.81467312093835   17.20126652663296    8.84651577316293
C        20.54925168344998   19.03886038000067    8.12267785600388
H        20.95295825834819   18.99484082192568    7.10876429006033
H        20.38452045535168   20.06997578996380    8.42516960922827
H        19.61392942107338   18.47554560754315    8.14896539127467
C        26.41736714617682   11.55327555952325    8.56477638491364
H        26.96058230240659   11.84109164415639    7.66737491798545
C        27.19273261591793   11.07281708825643    9.54282156302985
H        28.26749591378265   11.01746347193142    9.42001971661483
C        26.73923644491033   10.56167351885320   10.85152416415812
C        27.29413700708222   10.46039471112607   13.12586280807905
H        26.38546369983102   10.96321326239526   13.46438582144136
H        28.13649226945691   10.72485474385729   13.76049766400927
H        27.12417206411678    9.38197825380561   13.14015343402532
C        28.90925529041745   14.74299057951092   10.33537683645866
H        29.58254052848201   14.49745115751966    9.52970325626229
C        28.25158185112780   15.97521566205826   10.51612683612734
H        28.32367937767378   16.83445587212963    9.86920621917546
C        27.55510406212245   15.92134052823499   11.75404850143197
H        27.02567204102252   16.74155310801688   12.21386161434878
C        27.82029050412908   14.66487849743557   12.35279893018217
H        27.50836518747999   14.35460129773459   13.33679149289814
C        28.63774945134618   13.92804963416638   11.47090030281971
H        29.06218662583083   12.95721997483452   11.66770160168301
Co       26.86147673006319   14.41703164675776   10.50915215231564
O        21.36301110646155   16.54828968495150    7.93896570923632
O        21.47681573130635   18.49564352244254    9.04627595085474
O        25.76263983336480    9.89150839111796   11.06602697236903
O        27.62748248529094   10.88926561041402   11.81593917744246
S        26.07262530695754   14.64575326707071    8.53359472766770
S        25.20939699641435   13.21781749395858   11.16706353296360

