139
CSD_code = RIWNUJ | q = 0 | S = 0 | Stoichiometry = C66H56Cl2MoO12P2 | MND = 6
Mo        6.82204773109212   17.34957529540090   25.45760526812341
Cl        6.82425990278824   19.16280750693988   22.31225164157655
Cl        6.06189799604477   21.09162066684704   25.08649457863232
P         7.65369532683567   17.60367310623325   23.26625459955672
P         7.23285638328353   19.64252495114444   25.83485351353294
O         9.19463543734138   17.89118792634068   22.96595067284613
O        10.60161991936800   16.10632890791540   20.09131525521184
O         8.62565165747605   16.40038235884547   19.02103782131612
O         7.22071807297104   16.33980891242971   22.40411902824012
O         6.43246048295323   14.32523080158500   24.99512137266980
O         4.04289421539253   18.04698927665244   24.28501156176006
O         7.09311367784934   19.78068629993061   27.41094901097142
O         9.09090611954757   22.39123010326224   28.97656354950920
O         9.60020187040167   23.35640291011652   26.99497399226698
O         8.69642388424038   20.13798846159283   25.45335543444032
O         9.57491737328930   17.08224324238690   26.83382404568284
C         6.00830273894549   17.20840949687158   27.21676647518664
O         5.51319148023763   17.14534979613465   28.24107153048695
C        10.23561805874402   17.29989586149569   22.15999016765246
C        10.98297766465605   18.50956428528470   21.62685754454708
C        11.74883917489131   19.22904216538997   22.54197414209953
H        11.82743612800826   18.87878018061135   23.55995241455076
C        12.39775892239811   20.38915019089072   22.16524082183291
H        12.98451190509606   20.92990792486176   22.89183457223846
C        12.28749662846999   20.85528246979701   20.86639736258203
H        12.79395084821622   21.76110801888118   20.56842832222149
C        11.51732886360641   20.15596484105488   19.95583356767674
H        11.41752299458315   20.51623603813555   18.94210295798498
C        10.85981571712074   18.99650178022458   20.33387933508568
H        10.26414306914329   18.47852043401106   19.60310349088202
C         9.65369273670400   16.33446886068115   21.10422076087192
H         9.42588671413115   15.38473681401568   21.61850210048669
C         9.89457180466363   15.75342305546076   18.91957006182447
C         8.39279085896812   16.79514845377593   20.35245035528204
H         8.28707869980968   17.89000177964101   20.39119330998632
C         7.10923326271725   16.19130185090551   20.97681810264969
C         6.97770545004355   14.70817897297745   20.68340767012355
C         6.51526726192100   14.30281418958420   19.43582315777855
H         6.26078958310122   15.04464671148737   18.69545616034176
C         6.38830320891231   12.95731134453267   19.14356680493095
H         6.02775000005354   12.65401910248105   18.17180987576977
C         6.71370819029778   12.00218763012609   20.09221978282769
H         6.60932442948334   10.95204984612074   19.86374698950990
C         7.16571607519696   12.40137568342493   21.33718683705615
H         7.41466564759320   11.66601267766244   22.08751253872066
C         7.29846594254712   13.74756665231481   21.63374157193481
H         7.63447109033056   14.04642030724964   22.61486019080789
C         5.84361086347256   16.88154151555658   20.50904417319976
C         4.70271776706162   16.74843194942731   21.29166524325405
H         4.75065305877999   16.17120714065352   22.20517249362601
C         3.52089026020355   17.35510737286459   20.91143365661994
H         2.64561372062853   17.25801343345902   21.53558632349197
C         3.46340597005151   18.08291382234590   19.73482594235233
H         2.54114663546096   18.55926573143657   19.43708259709366
C         4.58948482101724   18.19187352830265   18.93826863582954
H         4.54647711579909   18.74826354055082   18.01348524377891
C         5.77860208854502   17.59421545315037   19.32025477729935
H         6.65010509853856   17.67396223850739   18.68896281332422
C         9.73764567154998   14.23255626039299   18.81307566615142
H        10.71328811710147   13.78914549353823   18.63652834234800
H         9.07030900785408   13.99356584451108   17.99108205278439
H         9.32472651223532   13.82253138914101   19.72977644242923
C        10.63807597202663   16.29113445592115   17.69777031712963
H        10.67564358980558   17.37593609153872   17.72388076931799
H        10.12338236962028   15.97404587564433   16.79648408282103
H        11.65157255085879   15.90337891004125   17.70216846858756
C        11.11711240538064   16.42989990432523   23.04000439456764
C        10.54967255034281   15.69758515439912   24.07303210460561
H         9.48638828919255   15.77726111824746   24.27084647482409
C        11.33198113513902   14.86721018091604   24.85561921981807
H        10.87877761515939   14.31515571259644   25.66539162835834
C        12.68594581643053   14.74447212909787   24.59547797203797
H        13.29858470949562   14.09832571004266   25.20647997416216
C        13.24838921436273   15.44353387601027   23.54064419248879
H        14.30035468126069   15.33722642280965   23.32077427021739
C        12.46961005523128   16.28118310119574   22.76190694698663
H        12.90624444256593   16.81566150646776   21.93253570414294
C         6.56362055651264   15.44454423558785   25.17480055800483
C         5.06498913161029   17.75598492916568   24.69303333264932
C         7.31027626540013   20.86636451301889   28.32643755893714
C         8.69457036600236   21.46336711335217   27.99809102219199
H         9.40190835961355   20.61546860010500   27.97281290328574
C         9.98680934085612   23.29652844929903   28.36605704986203
C         8.77720322262592   22.25397505451450   26.68099239503375
H         7.77792658829146   22.62867856309197   26.41157619794030
C         9.31528168786706   21.44161320989752   25.47413679146083
C         9.02594346027445   22.14403601022579   24.15937087723945
C         9.11937127057782   21.39658149033257   22.99304855089592
H         9.38249710347165   20.35328765038066   23.05883551775691
C         8.87679956606568   21.97912308278555   21.76377877104180
H         8.94232163952107   21.37982428619750   20.86850933233002
C         8.55694363543659   23.32316909661968   21.68636833948021
H         8.36516474743655   23.78199997377996   20.72774163793587
C         8.49180206439222   24.07947953759012   22.84341565855532
H         8.25562053782708   25.13207181753511   22.78943417429711
C         8.72547373941727   23.49727067953135   24.07756161878559
H         8.69211238158537   24.10490584640484   24.96795236516807
C        10.81330748564238   21.22161998036087   25.58630604592678
C        11.67869634826567   22.26053079937459   25.26061142266736
H        11.27662089571813   23.20283991199233   24.92409321469243
C        13.04641075449243   22.09009957735161   25.37708961947561
H        13.70891066229564   22.90593063386464   25.12641789540495
C        13.56794327956488   20.87998449571658   25.80491200478049
H        14.63638027346744   20.74711424787021   25.88906309193073
C        12.71099575061284   19.84019231573679   26.11824355163080
H        13.10450106386367   18.88899152320582   26.44557957238206
C        11.34018705607094   20.01050305395811   26.01438172622483
H        10.68408028328196   19.18860496993499   26.25441942922225
C        11.43477413496434   22.81657160461022   28.51601692928915
H        11.71262345672906   22.85891016300767   29.56519766188341
H        12.09117619554241   23.45564649372492   27.93382122267455
H        11.53919109913348   21.79479012823402   28.16313348691108
C         9.81899427528552   24.67733770692417   28.99880681662548
H         8.84412223449113   25.08826383761289   28.75169752758988
H        10.58720991613495   25.34453615985898   28.62157010340297
H         9.90514701572896   24.58381437024106   30.07675663240124
C         6.12120790518330   21.80162128555305   28.26029265631307
C         4.86325310156326   21.23007677011403   28.09358611167155
H         4.77407336537358   20.15661122906068   28.00544139902922
C         3.73353568275074   22.02366407548657   28.03690216340450
H         2.76596737630198   21.56508144563074   27.89946940021069
C         3.84218550201535   23.39862993989207   28.15870187637179
H         2.96030285916663   24.01996193280291   28.11138192487616
C         5.08642528894297   23.97067950090797   28.35241064449000
H         5.17966609814242   25.04123095639988   28.46357343032917
C         6.22068663149441   23.17827470481320   28.40794220257788
H         7.18072597272470   23.63310987522881   28.58409671340356
C         7.41329827586062   20.24537788041764   29.71428229424677
C         7.06039545150688   20.97534743831757   30.84084956367862
H         6.69230750127776   21.98363926262985   30.73445534225895
C         7.18337133418586   20.41402093881030   32.09922087834285
H         6.90519360231688   20.99023850298225   32.96926665042692
C         7.65377031010661   19.12040352997444   32.24487602559439
H         7.74121924875739   18.68179512996682   33.22791130694376
C         8.01231370464827   18.39254356783740   31.12415300842069
H         8.38251963551544   17.38331657146584   31.22629733458397
C         7.90049317695100   18.95411800649285   29.86486938893758
H         8.18085304869149   18.37843416143905   28.99462379069740
C         8.57609977400183   17.11970417460181   26.28326203938247

