136
CSD_code = RIWQOE | q = 0 | S = 0 | Stoichiometry = C36H84LaN3P6S6 | MND = 6
La        2.22057585675193    6.35546916675985   13.04659692419637
S         4.28207734049739    5.10533199383622   11.35816144106949
S         3.98469967927402    7.91062559537356   14.77849524012201
S         1.91524262744830    9.11365280923727   12.12277178599131
S         0.51897109694360    5.45396326921655   10.84849964710172
S         0.48486197379439    7.10160233588835   15.28835384748170
S         1.86533470312198    3.54591402512433   13.78030660441511
P         5.73948935705323    4.79210120115790   12.68849731223198
P         5.82357735793652    7.47554569471437   14.13226531207023
P         0.25101463981740    9.33312310609823   11.03678058258475
P         0.39940265906563    6.84261547908447    9.41158782193707
P         0.50006001144162    5.66086284462548   16.67844970532707
P         0.28182187008188    3.24378154613928   14.96300566571787
N         6.14324163970405    5.94982623080309   13.73562440678921
N        -0.02144986502189    8.35626693096540    9.78016307293675
N         0.08545251389963    4.15131130376909   16.28346211050256
C         5.34621694102148    3.33795997736277   13.78572923558815
H         4.55826794821849    3.75280632957942   14.43393696961036
C         6.55221849431851    2.97949529424226   14.64347852643763
H         6.99464341912797    3.87869209546073   15.06739097761037
H         7.30792138882484    2.46263918742609   14.05484378744138
H         6.24731532969680    2.32374683640321   15.45734203015257
C         4.77715156634099    2.13387694976941   13.04944390931024
H         4.05934132513546    2.44976711308277   12.29431197383086
H         4.25429548571521    1.48959317206534   13.75300951030226
H         5.55986992263421    1.55044083346812   12.57219805490118
C         7.29823184540487    4.40905624743658   11.74125478886246
H         8.05594475172783    4.19619610912341   12.50435920152693
C         7.70956382776142    5.65187265974818   10.96481218144833
H         7.80670910802564    6.50251922991279   11.63622708632695
H         6.96196230028269    5.88166076099383   10.20682956806614
H         8.66648727083102    5.49092139069510   10.47067324314509
C         7.12562923928267    3.22286136906089   10.80443257028729
H         7.07615906052666    2.28446838485728   11.34926151329702
H         7.96878162086360    3.16936952782217   10.11693140816842
H         6.21310029881212    3.33878523447672   10.22202124419713
C         6.96518617235163    7.76444787596852   15.56477976511788
H         6.80732048788888    8.80068858713884   15.88411609838151
C         8.41539166237050    7.54286438303836   15.16079076290834
H         8.75067587570695    8.29376918006751   14.44837961969471
H         8.52370466953551    6.55910203310622   14.70818569597762
H         9.05986471048689    7.59451688889255   16.03718432847234
C         6.55046352805162    6.83536798539194   16.69769898324013
H         5.51886083651949    7.03322177476333   16.98080789972162
H         7.18838992155260    6.98566214457624   17.56727089965242
H         6.63130242555759    5.79835736159429   16.37784836985326
C         6.33569009026848    8.72574086628175   12.83703073144854
H         7.38259647500995    8.50528611334378   12.59614092548030
C         6.20433448335905   10.13722671707528   13.38967450378072
H         6.91387906706806   10.32389129169930   14.19302385437484
H         5.19478460280858   10.29296863089188   13.76806167768263
H         6.38738673586611   10.86037086115440   12.59649084978390
C         5.47671268995664    8.54547847477149   11.59537337408057
H         5.48726088332949    7.50583290876016   11.26622646450932
H         5.84846576374674    9.16489856633840   10.78052579895967
H         4.44777287546917    8.84140501127506   11.80701028029466
C        -1.26895545857671    9.35810039548378   12.12188584920413
H        -2.06161217415257    9.77799572832596   11.49164568421801
C        -1.64832054627431    7.94043550155710   12.51244831505847
H        -1.68602559987189    7.29737811622499   11.63383118831934
H        -2.62369742779521    7.92512145401387   12.99557473812502
H        -0.91512134789387    7.53980563789360   13.21370985233431
C        -1.03741935308274   10.23055197192719   13.34587315141837
H        -0.77195333365728   11.24843839747749   13.06585730005314
H        -0.23225635846120    9.81483145996797   13.95204472801969
H        -1.93922791001098   10.26339005416186   13.95489860826008
C         0.32067288841483   11.03533791558885   10.29486916478613
H         0.42744478940170   11.73377619478972   11.13264665033316
C         1.55589977011479   11.13446614402971    9.40965181490903
H         2.45123693893265   10.89674581333961    9.98235450939484
H         1.65824187621060   12.14289293509700    9.01178225725864
H         1.47071024023408   10.43944908326863    8.57564266307952
C        -0.94275418387684   11.33909772187967    9.50141193217298
H        -1.80164261751187   11.48826896677495   10.15156527032976
H        -1.15488621765237   10.51602872123454    8.82193594226619
H        -0.80326323537313   12.24583143901101    8.91446341444214
C        -0.94586616716866    6.27012761876578    8.26714369784163
H        -0.68207863681118    5.25040708549979    7.96418029119741
C        -1.06118777377562    7.17809134443895    7.05084185125936
H        -0.21755765314129    7.05588860390947    6.37539138449540
H        -1.10758924879517    8.21667146001309    7.37224375681458
H        -1.97105631153615    6.94566591158907    6.49921165237816
C        -2.25477959335815    6.22977565422536    9.04506972721681
H        -2.15179622691852    5.59424351029088    9.92359516735966
H        -3.05518349572406    5.83267971026072    8.42274660465972
H        -2.52743147253835    7.23489190987833    9.36284476144843
C         1.94498033300735    6.86650549844442    8.36168246579375
H         1.66616786066242    7.43373731135430    7.46560488877421
C         2.36144167427678    5.45089041529281    7.99388232807227
H         1.56802316481955    4.92608276510722    7.46479278071649
H         2.60923230457446    4.89159353114034    8.89600324078249
H         3.24372675044128    5.47683934155647    7.35657965032571
C         3.05869027120713    7.60458851926878    9.08468632415489
H         2.71419280212519    8.57705623004660    9.43330723380141
H         3.90842752772133    7.75455947071265    8.42083504663662
H         3.39538832978406    7.02380724074488    9.94416078846383
C         2.11270599393973    5.60597682472764   17.62272487961031
H         1.90262448467205    4.95090321356498   18.47744091887234
C         3.20087653178858    4.96018788545669   16.77930060524425
H         2.84535606944220    4.01661185120944   16.36475679078115
H         4.08332985068655    4.76065524728302   17.38585093859199
H         3.49295351035923    5.61960427002008   15.95735964488232
C         2.50575185639461    6.99588765081798   18.09817656515573
H         1.73918574069531    7.42543517997476   18.74044299352326
H         2.65303616179226    7.65683438756415   17.24422930961872
H         3.43687593748363    6.94735471302300   18.66129730765881
C        -0.77543139147570    6.15988537323679   17.93038889256877
H        -0.52517383684917    7.18030080234764   18.24175373150953
C        -2.13363274122603    6.17376103113803   17.24087838243224
H        -2.11348468265174    6.84396223400145   16.38266758582681
H        -2.90615156458261    6.51463956993262   17.92822792100436
H        -2.38661148249692    5.17053168451657   16.90151788056529
C        -0.77790024902077    5.21772012369819   19.12588343820628
H         0.10765710473047    5.34847753739377   19.74376904133153
H        -0.81753661120228    4.18671887384233   18.77977513170196
H        -1.65276202019240    5.40784677236690   19.74609954194446
C        -1.30739450905002    3.24393401896182   13.98543283434894
H        -2.06272904871071    2.83825982214355   14.66865503236741
C        -1.68219026167025    4.67032870022750   13.62190782080757
H        -1.65467722593042    5.31133269907278   14.50275250053197
H        -2.68470134335095    4.70611072285415   13.19898867503800
H        -0.98363026796400    5.05780413720454   12.87958531400136
C        -1.17333838436818    2.37206003206383   12.74675250254338
H        -0.92990109504852    1.34324817941682   13.00581981220075
H        -0.38814690890831    2.76582918703974   12.10153233394612
H        -2.10746705202380    2.37524156703417   12.18750870745769
C         0.43982868182524    1.51074648228477   15.61411351957166
H         0.54055665420855    0.85821036506979   14.73943773685837
C        -0.78151144595763    1.12319531799376   16.43600299636309
H        -1.65838601293168    0.97917643820546   15.80913113895626
H        -0.99423684467826    1.90251230293349   17.16517699098512
H        -0.59135271715177    0.19259520459156   16.96901187734825
C         1.71063083949586    1.41721904424305   16.44799682864378
H         2.57520531371280    1.70517479781589   15.85151596763131
H         1.85958718747748    0.39847164946126   16.80268397019645
H         1.63794203751391    2.07868742877481   17.30992511865873

