76
CSD_code = RIWREX | q = 0 | S = 0 | Stoichiometry = C36H28ClO9PW | MND = 6
W         3.56180370387122    9.67812481952374    0.33205700208788
Cl        2.68003037415069   10.20027697083967    3.97176473780675
P         3.42092020347925    8.92521335559605    2.60582232615374
O         5.84506918932980    7.55170088239292    0.01772969023703
O         1.43717305440906    7.49403611214845   -0.42000795524255
O         3.75821045392310   10.61112022695232   -2.64641087276318
O         5.61832650177781   11.86447350118568    1.25409228229965
O         4.81453517443037    8.47306186316766    3.22569936794135
O         4.51518199815807    6.84536390745646    6.49516532376107
O         3.17140385736144    5.36981068912034    5.42892668833962
O         2.47304602192393    7.64968338079040    2.66427281828583
C         2.05377058397703   10.94394453588037    0.68729498340104
O         1.17555322806132   11.62721666923369    0.93394603595677
C         5.03248276851224    8.34974565033141    0.08683854299383
C         2.21802013366044    8.28581728135404   -0.17201053647339
C         3.68574163332607   10.27386757764758   -1.55818856332736
C         4.87813059186808   11.06977291426299    0.90583641030898
C         5.21477521534036    8.25021285780811    4.59104914080318
C         5.52021742803816    9.59161136786494    5.23003201920719
C         6.12934721658034   10.56999223078552    4.45405548984979
H         6.36886611206569   10.35691150826120    3.42268962315347
C         6.42380117948006   11.80837231401763    4.99280420373251
H         6.88552052821532   12.56303983372801    4.37438127069950
C         6.12890144367604   12.07498186056102    6.31884769839937
H         6.35629805122066   13.04231457978325    6.74120562638773
C         5.54862389646428   11.09356724314335    7.10310547058546
H         5.32747481966952   11.29097792419831    8.14157144472144
C         5.24373623303607    9.85492510317125    6.56499126702705
H         4.80268349096267    9.09211618664154    7.18771758782475
C         6.48148499951533    7.41391085975010    4.55183963588665
C         6.84090390639134    6.69999964916857    3.41611238168300
H         6.22981717527553    6.75037652399422    2.52818453701422
C         7.99446781572727    5.93398102365715    3.40783176499199
H         8.26295830520294    5.38783923642766    2.51590322118798
C         8.79639388615452    5.86940771562091    4.53313230429226
H         9.69508795446041    5.27105064854309    4.52536109991138
C         8.44233386149935    6.58130015938792    5.66691980663487
H         9.06563357446070    6.54059990647357    6.54784637342721
C         7.29459030334123    7.35273519844042    5.67799374443587
H         7.02311189459433    7.90567267466296    6.56290561480661
C         4.07111710846250    7.50666326566125    5.33267520222464
H         3.31706600665644    8.25295759806333    5.62502917380918
C         4.16518719311549    5.46436365397668    6.42980912544093
C         3.41130873390551    6.39380611118987    4.49660025767520
H         4.11778468580676    6.04037919257695    3.72527562926187
C         2.11146510409797    6.77766110646258    3.75432608906352
C         1.58123964152228    5.50129454466557    3.11499569829696
C         2.12425473548341    5.05510363776092    1.91715480670534
H         2.89862627743015    5.62984822903731    1.43007829210799
C         1.66644076987659    3.88715440105794    1.33463611900167
H         2.08946293697471    3.55635966362586    0.39780952472567
C         0.67334520511892    3.14616111081131    1.95096707996093
H         0.31663176518592    2.23369099826130    1.49684760542986
C         0.14124968760462    3.57990917106152    3.15277966947645
H        -0.63076768937874    3.00470221145895    3.64194398601166
C         0.58944782931502    4.75322269263989    3.73334150658881
H         0.16992510632350    5.08501030134026    4.67005113454134
C         1.03451346189479    7.45808768343704    4.57236517408545
C         0.09616907008288    8.22923617549298    3.89286754000564
H         0.16274649758462    8.32490750258776    2.81872676770042
C        -0.91468093165606    8.87349171060827    4.58044900656374
H        -1.62937062789608    9.47438638615498    4.03879430818570
C        -1.01071886450392    8.74656517445117    5.95580092770386
H        -1.79760074535710    9.25272543254809    6.49458699486513
C        -0.09905955795798    7.95765501691237    6.63389324452342
H        -0.17550312105992    7.83952816321878    7.70485733515790
C         0.91591677188554    7.31214535601803    5.94796562044445
H         1.60354089680876    6.67988732040309    6.48340660310889
C         3.57353695950185    5.02938762753382    7.76958800320217
H         2.82372270322721    5.74323883657883    8.09906183741630
H         4.36130749491607    4.97881229222704    8.51411939824390
H         3.11202538040206    4.05413553398941    7.65101300973235
C         5.38174571192772    4.60103171025598    6.07961255064638
H         5.09538039890021    3.55411217091620    6.11918886879222
H         6.17833087090949    4.79347682957296    6.79147715626560
H         5.74398376928087    4.83217424345501    5.08219514458072

