56
CSD_code = RIWTID | q = 0 | S = 0 | Stoichiometry = C21H27Br2N3O2Pd | MND = 4
Pd        7.23388931470460    8.20204104212844    9.06283380932268
Br        8.51788828034941   10.21744271804053    9.63315420159482
Br        5.71546255159394    6.40673881091104    8.38643247272323
N         4.88425482865613    9.27044230431578   10.49348489248096
N         8.43104106729948    7.76272229630506    7.32750731968618
N         6.38805030117334    8.46936769398707   11.85623487479001
O         9.83109216646252    8.17803041936865    4.85946881185080
C         4.41415206085760    9.49576553722518   11.77164032495098
C         6.07702305478125    8.65030338399289   10.56001164207391
C         3.25650723395582   10.08537539336873   12.25556874378222
H         2.50526636877434   10.49022804480879   11.59685144043238
C         5.38525770171654    8.98085795655802   12.64887366000710
O         5.43136475770870   11.67636924463309    8.92541470327343
H         6.27955313708411   11.52887203588593    9.37207004750215
C         9.87245529398013    8.03402656401915    7.28354259557968
H        10.37122186292811    7.53364965860095    8.11733507424821
H        10.02578244969691    9.11370828958552    7.37771370048912
C         4.17516222122249    9.60050663075715    9.27563598760194
H         3.27017430406595   10.13807262387473    9.55865490073487
H         3.90103144726465    8.67757086267566    8.74994759032288
C         7.79607944941345    8.41593525664097    6.17150441641346
H         7.93855612965120    9.50031332585545    6.26900883376155
H         6.72423563327392    8.18094963933663    6.15134730194835
C         5.22075699168469    9.04468410587198   14.02380449753920
H         5.96472249231843    8.66025049008771   14.70359608827197
C         8.44147275835801    7.93733148684608    4.86664159612817
H         8.24501011945761    6.85989748206590    4.73465665444460
H         8.03343543518590    8.47945183338501    4.01255765341446
C         3.09985600025661   10.14223481002968   13.62706456812148
H         2.21048047021653   10.59494066922906   14.03684663095679
C         7.61282126592893    7.84027332972760   12.31149509340908
H         7.49437223405352    7.59700590308118   13.36983817540671
H         8.43942431552751    8.55517242194066   12.20718916932390
C         4.06243250888980    9.63141779301518   14.49507524731154
H         3.90005602357094    9.69852905387875   15.55956774143653
C        10.46257749535886    7.55386955593472    5.95447155032065
H        11.51971146426132    7.81393551717503    5.88486022803727
H        10.35543911213742    6.45805375453203    5.87409462706823
C         5.00793095135343   10.48576622501469    8.32398415286984
H         5.86596707573236    9.89868931911960    7.92666441114925
H         4.36639597341153   10.76002307102524    7.48089312888559
C         7.89839779723310    6.59482275760880   11.50266645107994
C         7.06482389350525    5.47442608674344   11.59086677735815
C         9.00111319924993    6.57714151686091   10.64154506794765
H         9.68820140707612    7.42056580106625   10.63648677186896
C         5.85704508074507    5.46075565580758   12.47780854306341
H         6.08256212608428    5.84662929790586   13.47079117788275
H         5.47449670827649    4.44850328410857   12.57708583711472
H         5.06514845317466    6.07505790383146   12.04846999534059
C         8.44841715621461    4.34365315623739    9.96264667067805
H         8.64869609901128    3.46923854439504    9.36178238296974
C         9.27963479905359    5.44851255510642    9.88163905678896
H        10.15102291066628    5.42444786278666    9.24097952117968
C         7.35798645300585    4.36110664613469   10.81153137458261
H         6.70882003318195    3.50004843791552   10.86293904423685
H         8.29856957920108    6.74797393867061    7.21452276825383

