77
CSD_code = RIWWEB | q = 0 | S = 0 | Stoichiometry = C41H25IrN4O2S4 | MND = 6
Ir       -0.19674794191847   -1.29375492601059    3.93610782257412
S         1.08418859183855   -5.49121378633196    3.15898676165390
S         1.88396745908049   -4.35532380833348    6.46658832344597
S         2.01147109170675    1.84131047251411    1.66836075538817
S        -1.41484904655433    1.51269448730097    0.66084408131293
O        -0.83626202076707    0.43821090302479    5.06819603755350
O        -1.88606038266207   -2.30464312665739    4.83669053038403
N        -0.12233814117380   -9.12834965045025   -3.65785063201757
C        -0.03202468465034   -8.41894836539841   -2.76116489950289
C         0.07731678264322   -7.54536581040304   -1.65761182719022
C        -0.50927973869453   -6.27873159951962   -1.70528793277791
H        -1.04793456339811   -5.97520119309883   -2.59097819501511
C        -0.40230206967597   -5.42727888474667   -0.62882265274521
H        -0.86889473151745   -4.45630537583153   -0.67646307686318
C         0.29279660748791   -5.81136291373894    0.52547677642049
C         0.87176161581574   -7.08598163561047    0.55966959097321
H         1.40929506126098   -7.39494185238686    1.44411508801554
C         0.76949609369451   -7.94374566085814   -0.51166516456497
H         1.22117788261496   -8.92394811634634   -0.47494305304567
C         0.40788374751591   -4.92203977567633    1.65770423293925
C         0.03787861218069   -3.59513038724565    1.74346763796922
H        -0.39017112631174   -3.05850186364819    0.91548427897837
C         0.27818543767667   -3.00237706142983    2.99093785163344
C         0.83893465933953   -3.93203157132164    3.86550223919973
C         1.15293326456416   -3.47851789968026    5.15984647571414
N         0.89776341001709   -2.20351342023844    5.41765041036559
C         1.29991936592833   -1.83684519709371    6.66964199131685
C         1.23445641113041   -0.56239007346235    7.23098405515133
H         0.83489150084457    0.24908823930786    6.64590621048490
C         1.69218315828556   -0.37729347671474    8.51769259355567
H         1.64420447529660    0.60525932234052    8.96211235214833
C         2.22232885002148   -1.43412129032425    9.25533570056237
H         2.57134565923427   -1.26142520302352   10.26167675684126
C         2.31762087505246   -2.70029770308741    8.71033378299028
H         2.73928140323445   -3.52167092413530    9.26757049120263
C         1.86020452310364   -2.89095758865442    7.41823593272790
N         9.54467909911726    3.52558520139286    2.90878441763125
C         8.47433205626430    3.11493162575049    2.87393961740197
C         7.15655126545513    2.61037572054307    2.83317233826763
C         6.80353055185426    1.50630370885336    3.61233622426729
H         7.54685313400212    1.04143691364303    4.24329933042772
C         5.51757181920521    1.01636270166154    3.57397333810823
H         5.26179416304011    0.16250137431412    4.18059929685514
C         4.54509143732963    1.61088878869122    2.75891373585914
C         4.91544786139488    2.71605097808677    1.98226828610579
H         4.17625043561707    3.18388833236790    1.34872146110612
C         6.19835175799956    3.21273591339917    2.01458537093568
H         6.47178657895871    4.06596366531644    1.41175149511286
C         3.19295134682554    1.10523467475772    2.71654590321985
C         2.64796525241293    0.05554552842996    3.42853426553138
H         3.21699152716258   -0.52502795430373    4.13265684498118
C         1.29366085650925   -0.18939208306508    3.16240712773023
C         0.81605404229972    0.72113898856390    2.22078121550004
C        -0.52796349922240    0.58426053468425    1.82789256917270
C        -2.47360193686874   -0.51459984217839    1.88335155835368
N        -1.20731625430388   -0.40993001866252    2.38221436035620
C        -3.42193937237764   -1.48560465789504    2.20200134192479
H        -3.16713396459150   -2.25555243798060    2.91115579834656
C        -4.65664303649106   -1.43568115754193    1.59166043967682
H        -5.39836793116468   -2.18219444054664    1.83211287084782
C        -4.96481464045652   -0.44246205851038    0.66392391164573
H        -5.94035767366721   -0.42566936442671    0.20305435216558
C        -4.03221704724004    0.51630558845503    0.31697364924204
H        -4.25572910119564    1.28055525074279   -0.41030396405584
C        -2.79023838492939    0.46921383875891    0.92554005983458
C        -2.09782240138303    1.86426672429182    6.46376290919198
H        -2.02128063289052    1.77666499963536    7.54591895102563
H        -3.09912277382553    2.21164399149632    6.21896589755284
H        -1.36727783608027    2.58740389960167    6.10895786856657
C        -1.84116824593401    0.51501747196323    5.81986327221348
C        -2.73565839122234   -0.50738790246806    6.14297291697669
H        -3.53004412251587   -0.26145278432311    6.83133237196333
C        -2.70003889738414   -1.81784610476289    5.66206784773984
C        -3.77636468344692   -2.75447267221848    6.17701723649132
H        -4.75581851944170   -2.39619287587966    5.86554818691806
H        -3.75475729454645   -2.78893453606596    7.26396610962921
H        -3.61650863652343   -3.75402880763058    5.77974788740507

