97
CSD_code = RIWXOK | q = 0 | S = 0 | Stoichiometry = C32H54BClCrN8 | MND = 5
Cr        8.02243051585555   11.82488245422374    3.79109379579508
Cl        5.95597796754636   12.75860405123549    4.07761365892217
N         9.16915925549037   11.91472803840303    5.39902410617101
N        10.23815891926132   11.15078267812931    5.10161495611834
N         8.96419808717253   11.12759579054406    2.20347075551034
N        10.03680783136825   10.44920151758260    2.65703355973836
N         7.61033648126109    9.82458452073205    4.28098916712883
N         8.81696287773362    9.23999405202304    4.43486990755091
N         7.76404128014899   14.68685296416495    2.96949677855119
H         6.78076472539192   14.47218927934887    3.11432500600252
N         8.65657158238252   13.73056995175055    3.26514062740789
C         9.44920874695239   12.60962009929717    6.50480291742205
C        10.75815069411511   12.30023958813745    6.90631146578841
H        11.29546008975882   12.69237636091809    7.74458437759529
C        11.22827528377272   11.37865987277754    5.99622184806377
C         8.45789236864247   13.48422813816262    7.22819591250332
C         9.06952170274547   14.00930041821155    8.53111512004323
H         9.38288025344376   13.18903953971811    9.17257277259889
H         9.92800974675396   14.64495926184705    8.32671349695007
H         8.32984443461454   14.59807974130378    9.06921033032883
C         8.04558068542182   14.67664821930302    6.35844269478060
H         7.45108948196596   14.33407822866605    5.51856085147953
H         7.44552846661083   15.37190961860763    6.94158025248697
H         8.92162187229513   15.20243615736401    5.98368649659438
C         7.22254606403887   12.63707932660342    7.55841354827245
H         6.80232257812380   12.21989055174223    6.64633163356694
H         7.48949681918623   11.81633832551183    8.22150986528384
H         6.46447087471296   13.24672358499146    8.04450824809475
C        12.56835272806750   10.73777806572113    5.93786106262231
H        13.21414667195057   11.18309911500436    6.69022156712856
H        12.49788067871459    9.66765342420984    6.12779683844558
H        13.01943399075509   10.87677202027683    4.95682958827804
C         9.06682656466478   11.21720619674550    0.87563504249806
C        10.25883426756743   10.59459096397226    0.47208432607754
H        10.64098874161679   10.50147659536975   -0.52335124153237
C        10.84822642013334   10.12026762116095    1.62211055553166
C         8.06616259711153   11.88960384288812   -0.02717785007545
C         7.98283262847249   11.13277588566669   -1.35983023212162
H         7.18827486338154   11.55324726477042   -1.97242568896669
H         8.91382091321901   11.20920144346776   -1.91480143565989
H         7.76683298324626   10.08057034203913   -1.18921847722841
C         6.68059554632435   11.89568611163599    0.61711694888451
H         5.97593203472254   12.44246687689616   -0.00600621754236
H         6.31737668683333   10.87691407434885    0.73436450060045
H         6.71883788629941   12.37079227201490    1.59822324466163
C         8.52791907633332   13.32837865520062   -0.29833518994788
H         7.83486070194537   13.82267462946996   -0.97592582347574
H         8.57581668926461   13.89497435992086    0.62570283951433
H         9.51664912586931   13.32958975922496   -0.75227149053523
C        12.13585599602590    9.39191043130281    1.76810147356648
H        12.79549218027810    9.90304549270054    2.46734783245059
H        11.97018353257224    8.38154867943788    2.13937729564994
H        12.62616597103770    9.33203345866866    0.79994697718914
C         6.68520438471380    8.89813529334219    4.54429960859106
C         7.32613050884541    7.70032351126601    4.89404820666480
H         6.87655540166500    6.76999221633659    5.17032783488451
C         8.67596067942410    7.95312267457791    4.81273213263182
C         5.19044115792162    9.07748135679192    4.46223095439806
C         4.48707976976799    7.71993076025076    4.58941683757880
H         3.41551291825095    7.85660984583221    4.45861275137027
H         4.83718188185272    7.02570564211034    3.82865497322187
H         4.65296819371150    7.28226014249142    5.57078466988414
C         4.81447372933722    9.68071695773928    3.10625766649979
H         3.73769007247228    9.82097948058706    3.04330842056840
H         5.29528884890121   10.64252896627346    2.96959913059078
H         5.12660937632731    9.01610239739980    2.30230854465241
C         4.70986665580076    9.97116732142437    5.61060942991296
H         3.62456897462214   10.04381060793067    5.59849049739413
H         5.02077787415439    9.55628011269856    6.56755433004184
H         5.11725676540879   10.97063529612158    5.51846715533846
C         9.80453273811999    7.02322805002791    5.08336458011135
H        10.40160145320177    6.86429608163753    4.18644059542451
H        10.45657774262405    7.42121881800244    5.85921947035520
H         9.40878882549030    6.06629716178064    5.41360194588415
C         8.34271840365248   15.86780648325976    2.67361750000718
C         9.70009134207788   15.64547109078766    2.75464430299291
H        10.49298833901940   16.34101277870680    2.57358824202035
C         9.85123638819750   14.29882279734634    3.12750183381885
C         7.52370491417867   17.07818983277128    2.33942615765760
C         6.65329579845794   17.43411244331287    3.55234971145930
H         6.06499122340979   18.32405233853832    3.34133494064414
H         5.97376581500639   16.62150702361102    3.79626042497809
H         7.27798865163140   17.63034926346573    4.42074525724467
C         8.44120141857331   18.25441111736269    2.00147344973657
H         7.84765989372491   19.13224786311858    1.75732947293781
H         9.07974246538769   18.49610933466494    2.84737675633288
H         9.06989719890242   18.01571101320915    1.14713329056212
C         6.62873853302852   16.75995524610459    1.13433138262672
H         6.03738319742683   17.63305696905617    0.86863086584435
H         7.23546053912558   16.47984445594287    0.27597052508667
H         5.95033726101489   15.94118784540128    1.36015389127813
C        11.14865781009910   13.60603424500625    3.34515888646561
H        11.10879376938676   12.57989079017846    2.99316435138828
H        11.93569218482182   14.13267428950746    2.80990739491980
H        11.40584483759619   13.59632976000842    4.40487137372921
B        10.11781277666158    9.97444892030407    4.11563684994397
H        11.04342012310136    9.25510149028714    4.24505280532699

