72
CSD_code = RIWYEB | q = 1 | S = 0 | Stoichiometry = C30H34NO4PdS2(1+) | MND = 4
Pd        5.03224156321982    7.45284883031923    0.83279148404022
S         4.85108039406704    8.37955142667111    2.99326294157102
S         5.00306687465912    6.05085760160012   -1.02967955372094
O         6.18348213525831   12.17951293488018   -1.67074454859688
O         8.75717602344551   11.71785332921220   -2.86290915689159
O        11.82145383790256   11.49738939268746   -4.23352611030216
O         9.54783787572253    9.34322669229543   -4.65561683220969
N         6.76412536116662    8.61095942668004    0.33517352997359
C         3.50670951492079    6.29187048513272    1.43972895142014
C         2.82992596741474    5.48316055575274    0.52487832028407
C         1.77876268503704    4.67382001117426    0.94157311195312
C         1.38574294311268    4.67180817668059    2.26677386680463
C         2.05531868396103    5.45876403092929    3.18538657059697
C         3.12200537605006    6.25517054883548    2.78356242900270
C         3.88362539437236    7.05428069032096    3.79702359607440
C         3.49314996256423    9.53570725340730    2.49235425687022
C         4.04163228297670   10.31867229274918    1.34353012277842
C         3.89792920722077    9.85260623737165    0.03389129547279
C         4.56614573349097   10.47717888015041   -1.01242167902270
C         5.40983325280946   11.55791335788509   -0.75303887262022
C         5.49295592892935   12.06256212386508    0.54658007191829
C         4.82241569931905   11.44573374358921    1.57876519816168
C         6.37303786697923   11.58328417209663   -2.93810318265504
C         7.62414602111572   12.19890184692600   -3.55621752950887
C         9.92612633939381   12.49588982833577   -3.04663832147906
C        10.65330273834554   12.28046586387117   -4.39095038535650
C        11.78127779031824   10.19052043085827   -4.74473013278898
C        10.80506242554308    9.26301827916659   -4.00982521128785
C         8.48488330294864    8.72266178303243   -4.10114881027098
C         8.51148986845181    7.97736218798030   -2.92683220300205
C         7.34581346739518    7.41270647138717   -2.43481952849169
C         6.13682559302918    7.58641128266168   -3.08441206179241
C         6.11776257550450    8.30616103560691   -4.27856810977205
C         7.27147062746327    8.86012835141466   -4.78375906812693
C         4.84380402562234    7.02094660177281   -2.57271145275825
C         3.25052941673578    5.50454002076491   -0.91234436852266
C         7.59190178576081    9.39520449285049    0.20127344532789
C         8.62976377527166   10.34490853516894    0.01572070234560
H         1.27229748713853    4.04759372777800    0.22281019117644
H         0.56522113829416    4.04933598076653    2.58601715792198
H         1.76260707514469    5.45048618119165    4.22450748496740
H         4.62459217311693    6.43055325074705    4.30475566662252
H         3.24051462946202    7.51395754950517    4.54934632394519
H         2.62512056438672    8.93373971586456    2.21620115953770
H         3.27032218802304   10.16410447554501    3.35371723819707
H         3.17746195554709    9.05273724619565   -0.18059040728164
H         4.41904118580956   10.13770229428333   -2.02599767132203
H         6.10560924445436   12.93247563852176    0.71978581019252
H         4.91653317460441   11.82894898720571    2.58333041225482
H         6.51816845761729   10.50220847332290   -2.83522494729924
H         5.51158752296562   11.77775500317430   -3.58879873643418
H         7.66981599391484   11.92894159096363   -4.61838028754238
H         7.56712558014866   13.29144169615634   -3.46689401721233
H        10.60858392611700   12.20738268005793   -2.24298090363075
H         9.67380005741439   13.55694545854896   -2.92597939463487
H        10.98231307455049   13.25069149168345   -4.77667089429661
H         9.97550808824743   11.82256576438335   -5.11677396474641
H        12.79992292739061    9.81690950443428   -4.62564096244338
H        11.52024213872388   10.19109834996078   -5.81166979550688
H        11.17451894582396    8.23048659829072   -4.04434228131974
H        10.72112424571731    9.58600517880270   -2.96560480062165
H         9.43349806905989    7.81248976117573   -2.39379870556654
H         7.39383477782115    6.81913155498055   -1.53137310122193
H         5.18859734813177    8.42784963576776   -4.81580044609067
H         7.26140733834746    9.40864750787278   -5.71164485307990
H         4.11802557694167    7.81925428779722   -2.39614887548533
H         4.43000455307452    6.32443996698682   -3.30750392122512
H         2.64255469212830    6.20829340742594   -1.48518714724753
H         3.17921429563243    4.51702161088624   -1.37148416500231
H         9.59647620556867    9.86376305216478    0.16366872036771
H         8.51632459990970   11.15428019257523    0.73638323855577
H         8.57991645126902   10.75890297890122   -0.99660589994428

