81
CSD_code = RIWYUR | q = 1 | S = 0 | Stoichiometry = C33H36N5O4PdS2(1+) | MND = 4
Pd        7.10893914084785    5.28453117669803    1.86327760997533
S         8.72864309841016    4.24469171869536    0.57286780447139
S         5.75954128858001    6.69230275162722    3.12964367691932
O         2.67248433150947    2.59467001258607   -0.01507997996245
O         1.50775296130254    0.07224982554496    1.95912071800412
O         2.32509319198780   -0.93575127720941    4.60052188176206
O         4.28309485252188    1.17773420230237    5.77703063996975
N         6.09299858309053    1.07286277589361    2.25975714868360
N         5.97663234192860    3.43894135468360    2.14487602717949
N         4.36168865270857   -0.30264097471309    2.83835278407564
N         2.76015693888684    2.35902874232209    3.18178682673414
N         3.74856010157644    4.28501285385225    2.69228548262235
C         8.26335694539790    6.92949892404982    1.63109150375856
C         7.84519885400190    8.17847524240189    2.10079392237901
C         6.59435931800954    2.25854604734443    2.05034169926484
C         8.64099981800022    9.30686960222578    1.93564279426627
C         9.85949522465041    9.21265324614107    1.29157581560955
C         4.68830441055402    3.31924095816725    2.50683292788597
C         4.05146703877185    2.10541948071741    2.80460893487255
C        10.29207036610967    7.98627111246793    0.82387600463075
C         9.50941648727814    6.85041176777262    0.99758708867236
C         4.81411419447164    0.92318921429693    2.65466929377112
C        10.03147491996011    5.52501199715514    0.53208067530668
C         7.85210538802084    4.58935967850460   -1.02125157067568
C         2.61566612175636    3.64279049184026    3.09702008120981
C         6.45799134470468    4.06186782432866   -0.89353277631457
C         6.18686159769622    2.71516242480036   -1.09514510430015
C         4.93194189264710    2.18669798638786   -0.84607750885937
C         3.90691677231233    3.01049112268565   -0.38925102401568
C         4.15319364240093    4.38656898039488   -0.27024332605893
C         5.41749417552924    4.90328816979082   -0.48208437323770
C         2.37089031879533    1.20619195594160    0.02411648081371
C         1.16236478284065    0.99528950827343    0.94786805870890
C         0.65745813229017    0.12375338898608    3.08796630194140
C         1.02230087171382   -1.01031219561564    4.05419724674458
C         2.50090376160200   -0.44076972543660    5.91016718467195
C         2.88654572150716    1.04243707047541    6.00768492105892
C         4.80486363232872    2.42191554507338    5.65474117115336
C         4.10783265234593    3.60222358460573    5.91084456914461
C         4.70009723505598    4.82594697275585    5.66167724045591
C         5.98824601262134    4.91362714579441    5.14787859527737
C         6.70552573449696    3.73686475415782    4.94109099459804
C         6.13305237724451    2.51076335954403    5.21812787936448
C         6.54490467845805    6.24218165319145    4.74741976889343
C         6.51589703201854    8.31892872010538    2.77789437515835
H         8.29499900621462   10.25820099490236    2.31151695251226
H        10.47153008073299   10.09033203674971    1.15840220799538
H         7.64141161661058    2.26746734568027    1.77047456409145
H        11.24650100242180    7.89932762362777    0.32648672919625
H        10.81355857074542    5.15954634533879    1.20346932306870
H        10.43701671040116    5.55921881222723   -0.48055404105574
H         7.86842021482931    5.67099645294688   -1.17440155510182
H         3.44950564967484   -0.46525366529292    3.25760080977362
H         5.01886607270928   -1.06040614024731    2.75346318797152
H         8.41555744714181    4.07940485225376   -1.80259836900774
H         6.97303737901297    2.05759495600327   -1.43484146777057
H         1.70744573920792    4.16710111620526    3.31948986862951
H         4.76891439051137    1.13325047756415   -1.00317100556125
H         3.86824748164881    5.27400250087528    2.54500108990198
H         3.33000978865106    5.02700812334201    0.00718273195976
H         5.58748504497768    5.98152024790910   -0.39060675186594
H         2.16464459354368    0.85013040541342   -0.99109575451642
H         3.20592804800435    0.63666125406653    0.44420403093390
H         0.89878679530088    1.96433800942815    1.38997568302067
H         0.29553235328620    0.62421385976299    0.38407862424703
H        -0.38979768608378   -0.01900066348302    2.78268161639848
H         0.75600733249943    1.10295886772741    3.57433317879550
H         0.27175270126952   -1.04964905660802    4.85134259560030
H         0.99768875227293   -1.95085390527988    3.49427297776051
H         1.59255845190781   -0.60608408392597    6.50073559688976
H         3.31714081763751   -1.02923327602088    6.34115247206846
H         2.33319380090338    1.62139087777191    5.25992821861331
H         2.64164895333077    1.39978356466210    7.01637401251586
H         3.10079719973979    3.57790927026110    6.29395415859619
H         4.13955207806841    5.72978131949740    5.85288064362861
H         7.72450022477120    3.78596926561578    4.55989240491760
H         6.68310281111480    1.59623980923844    5.06322785821815
H         6.26643336489019    7.03026379740087    5.44825077062236
H         7.63002993081665    6.21550808058288    4.60212257499872
H         5.79925192760155    8.83440352698953    2.13261680594159
H         6.58124441480386    8.86276782534023    3.72220678942618

