50
CSD_code = RIWYON | q = 0 | S = 0 | Stoichiometry = C19H24CuF3N2Se | MND = 3
Se        3.26461768250890    1.33060431250699   12.86775477503432
Cu        3.23644743313092    2.86188701220219   11.17861066324032
N         3.10180289836376    4.81853465485188   11.01906329719191
N         3.50665285296094    2.94151566226736    9.20533038891694
C         3.75228175613008    6.56921654667095    9.53487325652847
H         4.03495366247424    6.85500969990941    8.53670710392754
C         4.07901645098477    8.96647990675375   10.36278159999597
C         3.41482117907985    4.20131183233544    8.75125200974615
C         3.19854031866334    3.67371950735417    4.96695631455499
F         4.52382332613177   -1.07413545614666   12.61765364539233
C         3.40385965741849    2.14808239637272    6.96932948363856
H         3.41527642952882    1.29314642698795    6.31382994095453
C         3.30190851506967    3.44619750670021    6.46233184089301
F         5.42256777688174    0.45803091862672   11.41324442911162
C         4.24856651006033   -0.00106498734436   11.88246469036241
C         2.86929083275253    9.81196376314842   10.78661138125390
H         1.99459030916387    9.54451000173578   10.19714409664796
H         3.08171226873741   10.86647660452820   10.62816381572028
H         2.63071213845450    9.66830872907219   11.83654993537816
C         3.49259485660194    1.94400307393527    8.33124590168668
H         3.56531703721521    0.94694036399916    8.74043171024524
C         3.10110864450603    5.69460628584304   12.01515461479327
H         2.83951628894686    5.30123670771571   12.98764984770768
C         3.40102976774600    7.02875575204432   11.83473331692238
H         3.36790434208861    7.69050692398648   12.68437435752458
C         5.29311062662087    9.31732737191037   11.23449726575651
H         5.08716766176508    9.15397282499849   12.28852711439901
H         5.55682174401218   10.36329208792362   11.09752317266003
H         6.14914694806038    8.70668891014502   10.95489877536874
C         3.74177539045712    7.50199538598388   10.56397745940275
C         1.95780397916996    2.94001425146127    4.43864006305932
H         1.06066071125336    3.31082563173982    4.93001152533511
H         2.02400423433479    1.86966271231777    4.61082348565651
H         1.85790483171158    3.10607890770565    3.36869593143080
C         4.46206805157522    3.11207753613718    4.29929683207178
H         5.34857448467028    3.61002292398697    4.68668289667294
H         4.41689180590245    3.27575328962374    3.22532266500713
H         4.56489371916305    2.04535054406932    4.47639456233411
C         3.30202621006814    4.47827772260176    7.39198374278173
H         3.19642565737928    5.50192991089381    7.07745483920876
C         3.42164401094486    5.24061452634032    9.78626350982228
C         3.07588722505008    5.15582834340026    4.60452402051469
H         3.94869445503051    5.71510016648098    4.93424034690455
H         2.18085184920042    5.59425952197119    5.04037200849982
H         3.00446687316925    5.25709798213198    3.52408643538323
C         4.41487760429142    9.29798826471852    8.90655852870391
H         3.57180694924444    9.08882949124123    8.25149272513711
H         5.28366114907536    8.73912757952488    8.56573183258420
H         4.64711391900531   10.35707409684376    8.82337301541034
F         3.58360697324566   -0.44113413021218   10.79648482852700

