81
CSD_code = RIWZAY | q = 1 | S = 0 | Stoichiometry = C33H36N5O4PdS2(1+) | MND = 4
Pd        1.69477920698804    8.08168410731564    1.68382472155965
S         3.69809865740826    7.05835917591998    1.13305611718397
S        -0.20909464910116    9.35763782498731    1.95685681245963
O         3.58421174256535    7.19495769275038    7.05172177216614
O         1.60093215721947    5.91513294399189    9.37156330090333
O        -0.82980203272251    4.50637845751066    8.89796175033288
O        -2.11435070787532    5.88738386146868    6.40927350898019
N         1.54078681598946    4.86968472542354    4.60592658685762
N         1.45285376046448    6.98962302758258    3.55286849369364
N         1.07174167348488    4.48286658410384    6.81333906759714
N         0.41915016654732    7.53528600641783    6.90563045538520
N         0.74647258378547    8.76313346364542    5.07961460684775
C         1.89613991644801    9.04864835411137   -0.06267905945466
C         0.88118277733937    9.89718668627261   -0.51603251368199
C         1.05769503706750   10.65133942896322   -1.67012207886882
C         2.23472086012908   10.55473157662059   -2.38962412033892
C         1.05255480611452    7.48129674442488    4.73899882085246
C         0.85903356825645    6.71761717705568    5.89905045112698
C         3.23092847676276    9.69250041428279   -1.97208186668240
C         3.06895904297176    8.93923581268084   -0.81365503032119
C         1.14291521852260    5.33475461530718    5.80747943486957
C         4.13319503323951    7.96418538481285   -0.40577860037937
C         4.63927237575747    8.03574662727751    2.39833583119552
C         0.36505728243696    8.72257948929896    6.39251168552431
C         4.76133052254229    7.19347595647645    3.63132727314797
C         5.47110581740077    5.99741587222506    3.56541724924493
C         5.57648647443188    5.20191087801859    4.68743333860809
C         4.97199426411094    5.56826114035493    5.87796357614204
C         4.24641796865358    6.75264019489071    5.95165208489030
C         4.15834971684775    7.56750817228781    4.81865506144932
C         3.63760412367958    6.42652868837616    8.24228641985235
C         2.55705420269326    6.93772127590985    9.19802495639741
C         0.38955556920216    6.36046014080864    9.94324310633430
C        -0.52146717118974    5.14266327960502   10.12548494625382
C        -2.15344501821029    4.59202330814321    8.43311476438873
C        -2.52987801598925    5.91980531920245    7.76286817266397
C        -2.34056932755380    6.98285238087068    5.64549834213692
C        -2.97949402857531    8.13877415108654    6.08527508724872
C        -3.14262875180104    9.21037011700977    5.22355407113244
C        -2.66100560729731    9.15752412270896    3.93238708544513
C        -2.01846759802149    8.00716540896957    3.47972422818807
C        -1.87038422144053    6.92512352006430    4.32876519239255
C        -1.46178901976571    7.99402640237004    2.08834801718618
C        -0.41966304972342    9.95348688213844    0.22772171088547
C         1.66682494529457    5.66989125920762    3.58252262539179
H         0.26851384433702   11.30812886038289   -2.00433006129549
H         2.37013446439952   11.14401063225263   -3.28266739184151
H         1.98197107493835    5.20283893156700    2.65262040485317
H         4.14166598848240    9.59627713682634   -2.54412910649026
H         5.09930400587421    8.44551689778487   -0.24577850216511
H         4.25650522274749    7.19334527746806   -1.17092622011172
H         4.11734193919304    8.98490635142718    2.58586690905029
H         1.24609001401354    3.51024877730173    6.62159989502661
H         0.69459069265942    4.75999081694611    7.71507808123497
H         5.62072542712840    8.22654080476304    1.96205313081118
H         5.93742615824651    5.69881355409605    2.63930832726975
H         0.05819426997043    9.60084943958528    6.92479712076056
H         6.13579223017023    4.28072891574734    4.64182658372445
H         0.77738176951650    9.57019993807617    4.47432226289742
H         5.07885510793475    4.92825773539415    6.73760897660916
H         3.62142973219456    8.50280799398956    4.89648735969418
H         4.63639823538762    6.51065410464153    8.68596648831883
H         3.41721063260330    5.37371988527120    8.03610932450441
H         2.98718659559114    7.21623988252313   10.16986180516066
H         2.08823572176953    7.82399300777377    8.75236724958332
H         0.57130167658602    6.81715023746869   10.92739722671860
H        -0.06708304738520    7.10805503857281    9.28012465612563
H         0.01712873360228    4.40386466617535   10.72883358107041
H        -1.43147779031069    5.44165577576837   10.65477863001598
H        -2.85522784056331    4.40372985393880    9.25562764779465
H        -2.25047849449601    3.79400880841991    7.69266339047658
H        -3.61993695279671    6.04275866178271    7.81225114195653
H        -2.04583495802437    6.75469142788911    8.28321348954329
H        -3.35888057184463    8.21674147016999    7.09029213663726
H        -3.64942755830209   10.09665951388178    5.57255233653687
H        -2.78023185258349   10.00281370839254    3.27184758292925
H        -1.39553603556827    6.01458416997739    3.99490724649841
H        -0.98049750820268    7.04231872850274    1.83746818074675
H        -2.23839990244943    8.22742740146035    1.35981774477582
H        -1.16341528271314    9.31103963983641   -0.24767610199902
H        -0.81302130719219   10.97025330101748    0.28695101538540

