35
CSD_code = RIXCEH | q = 0 | S = 0 | Stoichiometry = C12H12CdN2O8 | MND = 6
Cd       -1.25387116031286    0.00031601863739    3.16389963606738
N        -0.65582009123540    1.99436137462857    3.71682864413413
O        -2.46699724289703    0.31913590810924    4.86959900640152
O        -3.07733564896332    1.90516564950459    6.29714967493408
O        -2.10083705713052    4.25515316416818    6.13279986814754
H        -2.67237418943258    3.48788920717170    6.44353983380859
O        -2.48256443699519    1.08435956203824    1.29463317021586
H        -1.66671121935302    1.01929717883099    0.77556119760942
H        -3.17181454622713    0.64709669101141    0.78272688961424
C        -1.42781630893100    2.46009686790402    4.69746346685522
C        -1.34679693799852    3.79239956786685    5.14623900513725
C        -0.42422148529181    4.63373417950099    4.50835799563946
H        -0.34880659040058    5.66062530704971    4.83053439068116
C         0.35770199396628    4.12694508577205    3.49180525381378
H         1.07431111028260    4.75514626756315    2.98628610088686
C         0.21589118785018    2.79498204567364    3.12013453567223
H         0.81118840759448    2.35289822664142    2.33110133949535
C        -2.41572440154258    1.48885880317604    5.33996911562060
N        -1.85094990690896   -1.99439971368330    2.61229307237855
O        -0.03942503027376   -0.31927570387389    1.45939557934830
O         0.57045958070647   -1.90534646895734    0.03176698685809
O        -0.40615539724898   -4.25517042905317    0.19616850084292
H         0.16560172079757   -3.48799665454018   -0.11438396981131
O        -0.02592260564859   -1.08325413830548    5.03422919283665
H        -0.84092815914747   -1.01992204505589    5.55475950078164
H         0.66410222361424   -0.64754607886527    5.54655669600327
C        -1.07906291222848   -2.46009785687557    1.63154465780258
C        -1.16023668847117   -3.79236741159071    1.18267537437855
C        -2.08286542887622   -4.63367680106737    1.82050857199562
H        -2.15820839503358   -5.66059852062622    1.49841394775717
C        -2.86472754100967   -4.12690606454011    2.83711675535952
H        -3.58136963344866   -4.75509957972233    3.34260531080189
C        -2.72271649520300   -2.79500787720789    3.20896053367545
H        -3.31816499903210   -2.35288506211474    3.99785856475193
C        -0.09113171557183   -1.48891069917114    0.98890159950236

