76
CSD_code = RIXDUX | q = 0 | S = 0 | Stoichiometry = C33H34BFN6Zn | MND = 4
Zn        5.93517574952847    3.42662470654215    1.94016546382181
F         5.93535587599693    3.42753715538277    0.23302335941052
B         5.93553321898529    3.42698116253942    4.82126082093896
N         4.71120065977162    2.27844684182614    2.96254896600030
N         4.95366023053375    2.37602861746932    4.27986169649502
C         3.82215227830969    1.30253634701789    2.77291301097548
C         3.48846264856435    0.75274750536607    4.01740682101875
C         4.22382711917845    1.46393994194747    4.94633856150723
C         4.25172390402197    1.29329624521733    6.42255434708270
C         3.31301405203517    0.93980770546115    1.45899205153363
C         3.22560058643981    1.88547081873157    0.43951796440258
C         2.73899655230302    1.52743417571494   -0.80153261255055
C         2.32048779154970    0.22725138347286   -1.06080009069149
C         2.40018546758056   -0.71085322974079   -0.03841421342508
C         2.88841863244712   -0.36317175146538    1.20548504767978
C         1.77335730050038   -0.14616998242944   -2.40485641882348
H         5.93574959423883    3.42725612724274    5.99979746405341
H         2.79180692393401   -0.03589533291966    4.21505383774336
H         3.95247791899956    2.21213947232809    6.92357011721807
H         5.25420841512282    1.03532348623078    6.75988078387592
H         3.56877915976628    0.49785874689618    6.70856778274847
H         3.53734428848650    2.90270422960597    0.62236801901461
H         2.68688663363269    2.27018727095212   -1.58395299184954
H         2.08073118942033   -1.72751922888232   -0.22143829971923
H         2.96023529318992   -1.11045059111044    1.98233825607534
H         2.26528802801515    0.42037103910835   -3.19197426424401
H         0.70615582674770    0.07580042984191   -2.44797353326673
H         1.90449548374532   -1.20842593387301   -2.59770768051100
N         7.33639082169192    3.10192236380020    4.27918805320235
N         7.54170978923470    2.94071858228603    2.96178338305986
N         5.55356212614365    5.06106541079820    2.96174377421124
N         5.51645869390350    4.80260798385143    4.27915533880913
C         5.09273895869319    5.89137210995681    4.94535504454513
C         4.84587284291890    6.88392081078650    4.01620208880773
C         5.15441994491743    6.31936785890759    2.77184171869094
C         5.09471249509769    6.94180492578473    1.45796350787448
C         5.95732864835817    6.54560788241144    0.43810583124699
C         5.88998817923117    7.14678135764719   -0.80259762772133
C         4.97265736778644    8.15896642002382   -1.06112395125029
C         4.12031640798424    8.55791787584089   -0.03836479733094
C         4.17796692200460    7.96062317625340    1.20517756084366
H         3.49478423143176    8.27105485303660    1.98229641415558
H         3.39878392066074    9.34225911444775   -0.22091770011302
C         4.92192696607186    8.82024331355280   -2.40478559446509
H         5.16647010394946    8.11161657963909   -3.19252860837856
H         5.64724827796325    9.63389249396932   -2.44780265558762
H         3.93613763168440    9.23741825476452   -2.59682455979230
H         6.55952712927663    6.82165157201867   -1.58526818213436
H         6.68286919123071    5.76733309688670    0.62041357539300
H         4.51265847690203    7.88209464090412    4.21356688668656
C         4.93006870989334    5.95291972521826    6.42143719588918
H         5.87437820960246    5.74999300225476    6.92332821004964
H         4.20301601564505    5.21572957166049    6.75802528885484
H         4.58511772032282    6.94302823515214    6.70719596093593
C         8.83125583387875    2.65844080337956    2.77176647936699
C         9.47456700692906    2.64404070534020    4.01608754365466
C         8.49135289251538    2.92556881096253    4.94530954010203
C         8.62575816087857    3.03511277594581    6.42146612978699
H         7.98053700893216    2.31593682299870    6.92278292975234
H         8.34720677060140    4.03201987355755    6.75893895030529
H         9.65640405074493    2.84228028584168    6.70694391187854
H        10.50585133453278    2.43461086193991    4.21339464280102
C         9.40012724078591    2.39912432954283    1.45785216158574
C         8.62554892423158    1.85047088466255    0.43792759416672
C         9.17982083146190    1.60787712974793   -0.80271934079784
C        10.51523068503237    1.89554695717521   -1.06113694453261
C        11.28699291013082    2.43421021727309   -0.03842465788267
C        10.74090324109889    2.68329091698761    1.20505438592018
H        11.35144339435556    3.11972369954774    1.98213562432584
H        12.32712763382558    2.66650700670448   -0.22091704433645
C        11.11332026870663    1.60793012493006   -2.40457401437131
H        10.37767446717685    1.75032656180732   -3.19251110910689
H        11.45479085398989    0.57288666059156   -2.44704439306275
H        11.96778089662879    2.25244702929377   -2.59689844032185
H         8.56332783434632    1.19090085623976   -1.58543486466899
H         7.58865715357033    1.61167811519976    0.62014049242894

