42
CSD_code = RIXGUA | q = 1 | S = 0 | Stoichiometry = C18H18ClHgN4(1+) | MND = 5
Hg        1.40394098252485    3.16253508197702    1.29940897004346
N        -0.66310521766337    3.27306587272032    2.75763189326549
N         1.94092885596973    4.00060681755618    3.46097253214795
N        -0.24182571134681    4.58016772084048    0.32387824996451
N         0.44983904045151    0.99885744477502    1.57654623009781
C         3.08958212367316    4.63043503560831    3.70136516363236
H         3.79064414592201    4.67213597340873    2.87772813077285
C         3.38795446702345    5.19881774599898    4.92691663357094
H         4.33241672539953    5.69493004907513    5.07870628185185
C         2.44818987761474    5.11351295756016    5.94274458201946
H         2.64057671133838    5.54651857276685    6.91214134724404
C         1.25263667923620    4.46022911026200    5.69055944786799
H         0.49957347440831    4.37248407726826    6.45830348217538
C         1.03264163519751    3.90937319802278    4.43483284868457
C        -0.22804651866030    3.13127153255491    4.14341007420184
H        -0.00586565690235    2.07313586665749    4.32008979574877
H        -1.01968437826531    3.43176746518654    4.84485466940685
C        -0.18616109285463    4.94299821838366   -0.95636706051757
H         0.68928624674004    4.61984849496295   -1.50474613955672
C        -1.17726266262078    5.69285700345254   -1.56435503537700
H        -1.08922177421027    5.96742908064492   -2.60264176181367
C        -2.27492792287652    6.07624410696718   -0.80906611550069
H        -3.07096443311924    6.65878842850100   -1.24631955522736
C        -2.33264025902625    5.69624070019066    0.52211339301649
H        -3.17043820958220    5.97906336084243    1.14043659729665
C        -1.29295051155313    4.94868216233637    1.05956989034862
C        -1.28869721559784    4.57016811612747    2.52115012576467
H        -0.70363583666068    5.32813829812003    3.05355247539269
H        -2.31533699255128    4.59772570140723    2.91407096625284
C         1.13366666461120   -0.10980315450060    1.29960057636652
H         2.11447160680674    0.03243901906316    0.86446751157453
C         0.63318506943438   -1.37675223418810    1.54205115155505
H         1.21997954181367   -2.24704671895158    1.29822158080430
C        -0.62996749788767   -1.49382192171973    2.10140365517041
H        -1.05520515035250   -2.46343045979081    2.30932894561746
C        -1.33958995172316   -0.33941888197486    2.39095089917646
H        -2.32619474221576   -0.39284158206526    2.82449850536151
C        -0.76902195181217    0.89531003855808    2.11106662121451
C        -1.53429658322676    2.17406905528049    2.35333179929005
H        -2.01248777880406    2.45344609393739    1.40811216093930
H        -2.32731338859024    1.99731780488913    3.09420493814810
Cl        3.22122758993769    3.06790474728658    0.02597354200710

