115
CSD_code = RIXJOY | q = 0 | S = 0 | Stoichiometry = C62H48IP3Ru | MND = 5
I         0.95402936208249    7.22418517728519   12.87195812404878
H         4.80847366283929    6.33484645739315   12.26307823474653
Ru        3.39775444416389    6.84129960456867   11.95406191776760
P         4.09233350986812    7.60383029356752    9.96757963439592
P         4.05277415659662    8.77547824760237   12.93168272874143
P         2.96094855348146    4.64051951513167   11.43696661670876
C         3.80395873247975    9.40860965089569    9.77699527742049
C         2.70009926497662    9.89733401236215    9.04756595524934
H         2.04863863501148    9.19869427542678    8.54339755909186
C         2.45436744132261   11.23531571742212    8.95461559312825
H         1.60851631024248   11.59509975079278    8.38606704445860
C         3.29226014814609   12.17115944896652    9.59386687764228
C         3.04546606093782   13.55661767579427    9.51977903456777
H         2.18933682850919   13.89773524185440    8.95526395871048
C         3.86562127687838   14.44799182268091   10.15100401119430
H         3.67155406801736   15.50880442566665   10.09108703983956
C         4.96508019526748   13.98640277932018   10.88849489420273
H         5.60264724613082   14.69798110632145   11.39229384641378
C         5.22936717471643   12.64893329318877   10.98015463268139
H         6.07290766176990   12.30646221545588   11.56032035024797
C         4.41054578818643   11.70067636963386   10.32861411742159
C         4.65599843597711   10.30056341854779   10.41080480824004
C         5.73112946909741    9.25007282255102   12.39631267206301
C         6.88279747256511    8.93804367309294   13.14306061894313
H         6.77425298161665    8.51563021080285   14.13112998197905
C         8.12765064636670    9.18739671465322   12.64389264298526
H         9.00709576427256    8.94555758500170   13.22436316223605
C         8.29347217156805    9.77666094300179   11.37410191507447
C         9.57170377240627   10.04121674064425   10.84199733834690
H        10.43962663521399    9.75455993042603   11.41898051968750
C         9.71213471229531   10.65001295856968    9.62736343656930
H        10.69463247968445   10.85388397924168    9.22740836203655
C         8.57625621632492   11.01757320566416    8.89180028810066
H         8.69840452271432   11.50152024406965    7.93384800957250
C         7.32368036820389   10.76199761019543    9.37398077477831
H         6.45507405445480   11.04131175734580    8.79662469133185
C         7.14260993528278   10.13768268861447   10.62726601569145
C         5.85389303770932    9.85051963291541   11.15422000235277
C         5.80285121945032    7.55008282172158    9.32341577952754
C         6.09756261141118    8.17414919343222    8.11381259349232
H         5.31289505068754    8.68718855542821    7.57151412380285
C         7.38634695245352    8.14158641795177    7.61648221938130
H         7.61128455039582    8.61960252450950    6.67390553769990
C         8.39095498825965    7.50538624320975    8.32830705249167
H         9.39853686791700    7.48940916823800    7.93941114354147
C         8.10489817729046    6.90014002444810    9.54017927005334
H         8.88878596429758    6.41243911940060   10.10104606500098
C         6.81376478038004    6.91803653251281   10.03420428105145
H         6.57360931718141    6.44897424326755   10.97897924076060
C         3.10890712294695    6.88935826601332    8.60114764026131
C         3.62938834337523    6.31740916295301    7.44567237900943
H         4.69753396438856    6.29319198358648    7.27949859362173
C         2.77755521542278    5.77388756481857    6.49937926568276
H         3.19116788764888    5.33041082617448    5.60495772848929
C         1.40659241643444    5.79769580323401    6.68977457016511
H         0.74867888254351    5.38135177822875    5.94150840602633
C         0.88039324330741    6.34478041224881    7.84866341455296
H        -0.18680217074986    6.35183899279122    8.01321872105485
C         1.72796619536317    6.86878762980066    8.80424422310746
H         1.31999469664943    7.27497493937295    9.72360860997958
C         4.13055498274213    8.38053827317797   14.70958929631410
C         3.29381012358757    9.00724312584265   15.63074147837325
H         2.66521577506627    9.83026139233040   15.32061412707317
C         3.24760222003522    8.56723040405478   16.94156567288296
H         2.59099823195624    9.05879684261510   17.64435742933804
C         4.02456761402654    7.49627092476084   17.34956787352224
H         3.98331570624647    7.15546527473456   18.37385967212091
C         4.83945412173108    6.84909875562787   16.43456907322935
H         5.43303241745290    5.99868923186478   16.74018342237032
C         4.88226288958202    7.27730115632661   15.12070280534343
H         5.49181280292912    6.74397145671984   14.39934270015894
C         3.29044533076523   10.43617431350379   12.97464202959930
C         3.97425500212671   11.43246460588523   13.66907589101945
H         4.90663121676943   11.19082055948090   14.16518470043210
C         3.46249287057486   12.71262499119711   13.72492424072819
H         3.99476960484693   13.48233208024524   14.26507636086816
C         2.26801845153145   13.01068694742169   13.08670593019562
H         1.87095195757209   14.01418415790067   13.12920371863646
C         1.58806799915374   12.02476871052957   12.39511580264154
H         0.65754100994027   12.25329855713716   11.89720181350314
C         2.09703551112108   10.73936826107716   12.33651946539377
H         1.56465804416325    9.97784923622051   11.78591689085297
C         2.44376868866152    3.81605776106944   12.97952691119484
C         2.85338741111827    4.41690332827496   14.16663938320688
H         3.43964816241841    5.33869577961846   14.12470922430466
C         2.51764089632616    3.86647380334767   15.38813634444722
H         2.83082494273805    4.35022223157334   16.30227977526432
C         1.76797374671564    2.70222298134523   15.43041663526747
H         1.49421177391284    2.27114449871174   16.38212632877075
C         1.36497001186282    2.09210948056360   14.25322931024573
H         0.78168484515941    1.18330994233482   14.28905732198815
C         1.69980359571777    2.64142166115275   13.02845563241767
H         1.38054801108502    2.16518648176762   12.11147208542728
C         1.73130900695329    4.00246543643138   10.24588363282580
C         0.37932613013489    4.17793534746153   10.53583714053997
H         0.08129383477708    4.65768354289319   11.45795726968673
C        -0.58560659488318    3.73115682725359    9.65407977735848
H        -1.63045065307266    3.86721374029376    9.89214277000343
C        -0.21365753186539    3.11002530372371    8.47282744048337
H        -0.96835458509039    2.75715361476642    7.78507248576623
C         1.12815940792651    2.94252339217483    8.17597178498124
H         1.42368824470463    2.45878237992503    7.25596025847369
C         2.09946672729504    3.38869047260316    9.05364804946421
H         3.14395712029626    3.25240029720799    8.81177906652562
C         4.42603498953622    3.65340620262243   10.98176959344223
C         5.20313860112724    4.14281328091174    9.93680701609522
H         4.90123649326248    5.06624403025246    9.45653674169977
C         6.34206438391903    3.47591865812592    9.53170477203168
H         6.93915044984962    3.87051054835199    8.72175910521396
C         6.71875221000746    2.30783256851407   10.17599031587270
H         7.61166181514342    1.78358862141535    9.86791292032897
C         5.95291657559124    1.81738110637049   11.22002416851823
H         6.24892599877366    0.90966727722668   11.72629713696286
C         4.80848828959710    2.48323237779871   11.62554155854650
H         4.22148364184170    2.09282436409642   12.44505410077886

