71
CSD_code = RIXMOB | q = 0 | S = 0 | Stoichiometry = C27H40BrIrN2 | MND = 6
Br        5.92793859503955    2.71112346930222   -0.09024611407415
C         4.88127420009274    4.29981019561986    2.21858518648672
C         3.32213735535374    3.06351727737170    3.42934836612108
H         2.93267799523215    2.08671282968529    3.13282692139352
H         2.57226867982675    3.55661640829997    4.05733643555010
C         4.69001764415676    2.95450586082038    4.11290625567750
H         4.66078607805641    3.27496965183212    5.16179987611578
C         5.30972881072964    1.55755877636223    4.01322301853131
H         5.24927939520284    1.22252430663105    2.97544478618118
H         4.74799441678214    0.86201547882119    4.63893953998817
C         6.77681990553563    1.60408832564619    4.43257707381910
H         6.85330339083088    1.92668294258441    5.47482178237340
H         7.21452237987777    0.60829970665198    4.35430597333976
C         7.53202622759247    2.57763058889668    3.53177561940430
H         8.58200482143430    2.63462583881420    3.82018324805328
H         7.47449937715817    2.23027247548321    2.49920911398242
C         6.89891671178847    3.96695814608051    3.62374638048429
H         7.03107209043118    4.37233791961276    4.63543184857757
H         7.36024817680335    4.64685665986546    2.90362262461661
C         2.68414419846205    3.97218137774251    1.15080838941850
H         2.96123558515893    3.24126322773175    0.38583013845860
H         2.79515853603828    4.96071401614158    0.69524709859149
C         1.25551640208423    3.76476192620293    1.58778595830089
C         0.60334675666024    2.55315975535607    1.35074589260653
C        -0.74631043521345    2.42131705798401    1.69123355944973
C        -1.41843573903530    3.46907738186429    2.32116219361526
C        -0.77042790028385    4.68790260668953    2.53143789223184
C         0.57757837964621    4.82179254097510    2.20071363315084
C         1.31793660130168    1.36951952510933    0.75511497915385
H         1.00369341753845    0.45399830579146    1.25097702304574
H         2.39599106036580    1.43833501114614    0.85278182134052
H         1.08680802811636    1.27668749409818   -0.30646312903589
C        -1.47973623595204    1.15122499299123    1.35457273940300
H        -1.08065208965857    0.70534845175741    0.44869466240498
H        -2.53458249253167    1.34535233432414    1.18627839319225
H        -1.38946122005418    0.42210312866939    2.16103502108262
C        -2.83314495008047    3.27845308083017    2.79823223651599
H        -3.54864973498294    3.53676331943864    2.01624933727530
H        -3.03546535423421    3.90060904150006    3.66513673094639
H        -3.00448792615985    2.24635559744726    3.09039466697988
C        -1.53135576327189    5.86318512089056    3.08417381472591
H        -1.48802419626749    5.88337507741967    4.17432988654824
H        -2.57447998472593    5.82102615918939    2.78454326946568
H        -1.12243025412325    6.79681753331836    2.70931539519506
C         1.30587875389815    6.09931952081408    2.52318089233119
H         2.36632853441763    5.92028971168358    2.66923859775544
H         0.91965574201850    6.54059813599470    3.43822237107416
H         1.18771238643973    6.82602881051594    1.71790049479682
C         4.95317251976692    7.01946434621334    0.86649575812800
H         4.10615231076892    7.03056780948283    1.55121233214127
C         6.23212829861675    7.00268771849867    1.45220612671258
H         6.26267258321832    6.96206216112431    2.53943620144057
C         7.43180238407397    7.68676164105143    0.82979674844078
H         8.09109541809224    8.04516576941326    1.62346527288270
H         7.09468966045824    8.56411654270532    0.27470078455179
C         8.23222386166217    6.74589500355149   -0.09086025163171
H         8.72943330788139    7.32333794055358   -0.87828671693221
H         9.01798396595260    6.26085694711819    0.49358129747838
C         7.38525055687050    5.66540652176769   -0.72048254421703
H         7.94978116977979    4.76981159407823   -0.97529936229551
C         6.18820553054663    5.88508545194299   -1.37450245439633
H         5.85318217731869    5.13314560294428   -2.08579559051603
C         5.59960208014329    7.26093461961876   -1.58805566645789
H         5.06048191469279    7.27430324229233   -2.53764749840394
H         6.41060861034952    7.98683761200313   -1.66960171952637
C         4.63126659256941    7.66685095541221   -0.46101739796027
H         4.62549170690069    8.75689958946221   -0.34515276826561
H         3.61699784021437    7.37091374096472   -0.74135977432279
Ir        5.79175907539511    5.09591804904140    0.61270573231913
N         5.49168687632852    3.89343868564205    3.33820602979743
N         3.61437520088081    3.88007135307985    2.26064356437383

