56
CSD_code = RIXMER | q = 0 | S = 0 | Stoichiometry = C22H30BrN2Rh | MND = 6
Br        4.97926317965655   10.04446597288170   10.72456375492390
C         7.83622438869511   10.64663589039620   10.53288788594102
C         8.45270039195063   11.17173675103969    8.35153849552410
H         9.31970865873954   11.77209202013055    8.04682393204931
C         8.82870870673138    9.71268006327338    8.64925248748490
H         8.32161148786854    9.01282290305377    7.97676295755911
H         9.90721371771061    9.52948546024854    8.58983403797755
C         7.37249100335275   12.93733489700571    9.74333259404518
H         8.14812177844521   13.69862390925845    9.58632743104435
H         6.96071072304465   13.04564080713512   10.75628060935198
C         6.26589511247714   13.09142351148040    8.69956984382864
H         5.88443542618706   14.11264285901674    8.72261555331538
H         5.44982535219823   12.41075691786875    8.94766078095378
C         6.80560033823110   12.74739043182291    7.31417173647453
H         6.01294583554974   12.84611189243145    6.57188213524333
H         7.60980305361391   13.43810766530449    7.04490821434582
C         7.33381066398699   11.31507234692206    7.31695941108611
H         6.51952052992042   10.63914047299105    7.58715115520474
H         7.70906914209901   11.03604941714340    6.33091255316644
C         8.31679263970168    8.23879008006198   10.62737488880919
H         7.80109612381051    7.53489278323159    9.96175368004603
H         7.70668559317148    8.33742484339359   11.54311213819685
C         9.67849002809281    7.69972572992881   10.98406357380277
C         9.85751868477443    6.33054740601116   11.13971478601507
H         9.02061526939938    5.66487576058789   10.98412767208335
C        11.09215578905678    5.81804172456231   11.49359940724921
H        11.21718381873026    4.75184123223445   11.61231114461241
C        12.16686647692191    6.66871638084416   11.69211369120899
H        13.13194820518171    6.26927276419116   11.96594733008499
C        11.99776530531664    8.03349604994073   11.53773535291016
H        12.83122026878094    8.70335623396811   11.69186429817701
C        10.76069509334165    8.54583796987229   11.18771254868151
H        10.63712770335581    9.61368899456587   11.07204270946310
C         8.15315738265983   11.89287755392496   13.34362757048829
H         8.80015887512733   12.46228374273001   12.67575655314331
C         8.43716876983957   10.53280381322800   13.48875379470311
H         9.30183069374084   10.14078909467747   12.95313353298580
C         8.08579450816932    9.70566816310758   14.70418444071973
H         8.77359101459229    9.95503963640243   15.52070641460844
H         8.25562142833380    8.65385700636814   14.45540748834714
C         6.62776919073916    9.88503422121670   15.16886050083507
H         6.29115046805228    8.95749552245713   15.63711297272155
H         6.56275750006987   10.66881239575992   15.92557695826859
C         5.69782235448758   10.22507276510791   14.02568272441298
H         4.99620225237952    9.43424263747787   13.75640770713689
C         5.38315363988982   11.51743717011301   13.65933151336960
H         4.43422459965797   11.69049353629118   13.14904377794304
C         5.96237556146724   12.76205302944112   14.29200855808170
H         5.50095532829778   12.91460447404880   15.27430158361575
H         5.68372626325807   13.61848608104216   13.67109083556512
C         7.49684494168336   12.72117241988217   14.42894264670783
H         7.88025210375373   13.74301321789608   14.37941065809860
H         7.78133958922659   12.31953944976745   15.40310748616559
N         7.97356949305576   11.63334361626090    9.64960021974677
N         8.35355172445301    9.53421305337423   10.01110581523100
Rh        6.76746182704872   10.74004525650349   12.20203745619799

