67
CSD_code = RIXQUL | q = 0 | S = 0 | Stoichiometry = C30H30BCl2N3Pt | MND = 4
Pt       -2.72513591581772    1.07474422049985   -8.18334004163588
C        -2.83120316987471    5.22044448917495   -9.99793997544367
H        -2.90989202362827    6.15461239141972   -9.48162318607083
C        -2.99551724498299    4.99333557876847  -11.32347588965677
H        -3.22367789520472    5.72177410364744  -12.07457906966928
C        -2.80987786197888    3.59766399069922  -11.53170898983070
C        -2.82467100240075    2.76024176205456  -12.64511341589705
H        -3.01773498720201    3.15163884431863  -13.63137263587780
C        -2.58125055204227    1.41930107410227  -12.42507532822231
H        -2.56169554223790    0.72085653711418  -13.24554793304159
C        -2.38988518871206    0.93910706675545  -11.13277028488846
H        -2.25259431968315   -0.11622915743575  -10.94912402481568
C        -2.56090930738045    3.03030289996591  -10.25891646600916
C        -2.11589704341072    3.96765841221280   -7.99451981363093
C        -1.92278930147412    5.11922619101688   -7.23009001932637
H        -2.15513012601412    6.09288808305313   -7.62590513974676
C        -1.45151801153200    5.00369567459501   -5.93705733243560
H        -1.35262616370737    5.88522415938567   -5.32118544122139
C        -1.07133075708755    3.75622293536905   -5.43636915772059
C        -1.26125079277032    2.67356384034311   -6.28744658300651
H        -0.97120321605088    1.68215073226162   -5.96863724902619
C         0.50281185668178    2.36428509349759   -3.79227029996861
C         0.24285513603227    1.24665102903071   -2.97873371293409
C         1.17808016618336    0.23047201824278   -2.87440291580223
H         0.95936732924091   -0.62496340134947   -2.25069543251837
C         2.38886786600294    0.28030998926724   -3.55084755516918
C         2.64305510527460    1.37984288812360   -4.35532638473212
H         3.57974230304932    1.44142908803750   -4.89256489806850
C         1.71930728589118    2.40487703978215   -4.48845500577320
C        -1.21868170382824    4.31637841314286   -2.82182747641931
C        -2.61367542463293    4.44322358732397   -2.71684964280141
C        -3.17153364650865    5.23157559519868   -1.72006606931293
H        -4.24828921051429    5.30617164733636   -1.65312651093346
C        -2.38491961282548    5.91735935901806   -0.80987442323414
C        -1.00601141318936    5.78174089600738   -0.90517944038353
H        -0.37720416773846    6.30116339636964   -0.19502107723791
C        -0.42044025434300    4.99183564044108   -1.87917601152383
C        -1.07077890794570    1.10452213923591   -2.27186639503505
H        -1.02543635039398    0.30932318211571   -1.53184459813739
H        -1.85049043488820    0.85362788269079   -2.99122089849679
H        -1.35400489415480    2.03121270898231   -1.77949265379191
C         3.37721263360332   -0.83786265665357   -3.42474844364300
H         4.35634169063516   -0.53788103710754   -3.79031971283423
H         3.04234631697851   -1.69638573115098   -4.00733886180204
H         3.46879413862437   -1.15555262824553   -2.38780326632408
C         2.06503333847285    3.56108950123591   -5.38642170431283
H         3.12954697579464    3.78133258574629   -5.33053569543689
H         1.50805463461771    4.45538167231600   -5.12166848503459
H         1.83187340607042    3.30792641592693   -6.42158467289668
C        -3.54954353028099    3.71354583422351   -3.63857331788562
H        -4.45530780400670    3.43257305353517   -3.10510241341354
H        -3.10586657263682    2.81397457290368   -4.05421650839221
H        -3.84449632886940    4.36092601621071   -4.46544596506817
C        -2.98940050183511    6.77420065567906    0.25964637737989
H        -4.07509823501389    6.75106552028842    0.21124503766930
H        -2.65770312945641    7.80646843071680    0.15086573487110
H        -2.67679089507493    6.42806359172203    1.24408066848657
C         1.07640244220447    4.89439037038836   -1.93101485504215
H         1.52237908056985    5.40031460485068   -1.07809558118715
H         1.46224573978231    5.35336453059391   -2.84020091964672
H         1.39230042288476    3.85394913799816   -1.92663994866847
N        -2.54824392391825    4.04574090658618   -9.32238045831905
N        -2.40355024282591    1.72010020114211  -10.05260011404294
N        -1.83373237905996    2.75761353302691   -7.49023789845722
Cl       -3.81668882710031   -0.72718012472013   -8.94589277964668
Cl       -3.27943247786008    0.50873728002778   -6.07590976671637
B        -0.57340657629688    3.48224174090484   -3.97486707020143

