47
CSD_code = RIXROH | q = 0 | S = 0 | Stoichiometry = C21H23ClCoN | MND = 8
Co        0.79146224037884   11.21180267252864    3.02407215655830
Cl        2.72093282343697   11.95603225472063    2.37825819010721
C         1.26500840148553    9.48439190133179    2.38812157726273
N         1.51289940429525   10.57519972152122    4.65270625167020
C         1.78251485139315    9.25233781418897    4.70576327028669
C         2.21671116407508   10.80386569341112    6.91480858919422
H         2.39960566104803   11.45497586770702    7.75450204926312
C         1.56349373749767    7.68812244898732    0.81743655166654
H         1.56210367013793    7.33601424480328   -0.20445737884541
C         1.27402278439365    9.01677803644492    1.08337111506198
H         1.07443374140811    9.68626516873108    0.26020406037510
C         1.91111392420713    7.26457731088056    3.14814561047941
H         2.17935756810018    6.59010952351157    3.94817158146267
C        -1.18714037700306   11.30555699525757    3.60997962220561
C        -0.41951295163441   12.08123805289899    1.59508068801454
C         2.43768317978886    9.43499607512324    7.00457470510909
H         2.78226148606856    8.99229811999736    7.92687914345071
C         1.85883873901974    6.80746379907245    1.84831071578831
H         2.07224675957224    5.77140471284291    1.62970948984550
C        -1.12305502792243   11.01151989856365    2.21623752546528
C        -0.67415579936793   12.63623081887202    3.81788738692692
C         2.23308250836492    8.65752518835657    5.88337574196821
H         2.42711158716655    7.59739971901135    5.90553688362049
C        -0.19945264365043   13.10719209574248    2.58839227127141
C         1.76052843506348   11.32775567378831    5.72129215119169
H         1.60461400974127   12.39142052761072    5.61379556564002
C        -1.82956686380686    9.87552341665039    1.54606928710419
H        -2.89112870028982   10.11702099800889    1.46180595905209
H        -1.73483359079370    8.95415911942852    2.11696369186088
H        -1.43915385972653    9.69653774341052    0.54857229880466
C        -0.82745941677251   13.42819083325449    5.07954773191761
H        -1.78385447152547   13.95574046640478    5.05955760331255
H        -0.03841838360115   14.17045442473589    5.18426324731459
H        -0.82140644117574   12.78534166878263    5.95772814234635
C        -1.93992929647583   10.50326317406651    4.62413506644798
H        -1.53635042645257   10.64682238172992    5.62502234942123
H        -1.90050992086127    9.44207011906847    4.38745017192624
H        -2.98747386736950   10.81126006830984    4.63410997461013
C         0.35768248417760   14.45603999184353    2.27518413249870
H         1.37915776471295   14.36362541617900    1.90568076614335
H         0.36285477073545   15.09518453716222    3.15435268476160
H        -0.24164157402232   14.93225942125146    1.49818696318723
C        -0.22110747082888   12.31223567461334    0.12980006202721
H        -0.86868968832110   13.12504194036352   -0.20452109582961
H        -0.46203656041051   11.42425740934293   -0.44875941600891
H         0.80992193300261   12.59622101821656   -0.07427765467297
C         1.63133370273680    8.60387584127643    3.42017251873198

