68
CSD_code = RIXSID | q = 0 | S = 0 | Stoichiometry = C28H35AuClN3 | MND = 2
Au        6.45149146386942    4.91949941254142   16.72456125595251
Cl        6.61400288090677    2.68954583610470   17.16078989759435
N         8.44164552880196    7.10772138620136   14.86318681934112
N         8.66687238011545    7.76928299055861   16.92733317758720
C         7.87362574815988    6.61347682033009   13.65884240021622
C         8.06453513362762    5.27964320532061   13.29503189929966
N         5.87332349302767    7.68024093328451   17.37001123346321
C         6.71282975366002    5.67546369151871   11.32050525357421
C         6.39693536892595    6.99251476317150   16.26234986367511
H         5.81127915472600    6.99742020741883   15.33694735230041
C         7.77432938050685    7.29190473066479   16.02963529479876
C         7.14065024204493    7.49115296732651   12.85908563229510
C         6.98758618055896    8.92968402236641   13.25384037747364
H         6.38058133783507    9.02102259922748   14.15455753034762
H         6.50768234274023    9.49350958353351   12.45853124481256
H         7.95879342317480    9.37727139020455   13.46278913779016
C         7.47196576912692    4.83456444730956   12.12231669010043
H         7.60145676814834    3.80227745789102   11.83226251923670
C         9.76339986944185    7.45162590290697   15.04480552948031
H        10.47310757037365    7.38044855032002   14.24684089460967
C         8.41965433550631    8.11382311930179   18.28424234008677
C         9.14817597721914    5.79966336059842   18.94605050118690
H         8.36056362723410    5.22894071720070   18.44415168365172
H         9.43377801207503    5.26144592554006   19.84547291857992
H        10.00477158279850    5.83913702670583   18.27422307245970
C         9.89993799243526    7.86351903612342   16.32091915444689
H        10.75681114559401    8.21920210171666   16.85467412179598
C         6.56417683917759    7.00274807245087   11.69682305924277
H         5.98880250379831    7.67257770511096   11.07412619070080
C         4.64750928023634    7.80338574703256   17.65295011237721
C         8.86429845026830    4.33865747780716   14.13994313243839
H         9.70471776918747    4.83741548605022   14.61794018644411
H         9.23865866994601    3.51455354839130   13.53828470764321
H         8.23459119301089    3.91775758200091   14.92771730903346
C         8.41526518950433    7.53853645087058   20.59913175449329
H         8.57817425730030    6.81308382578884   21.38295296375227
C         6.08840017309765    5.15362183988028   10.06352922011589
H         6.85887023721113    4.93975293640942    9.32310465564083
H         5.39617948205603    5.87699617246881    9.64079396313745
H         5.55281027662103    4.22736639248532   10.26193735569084
C         7.77177119534886    9.73423960165512   19.91316350914081
H         7.43108518317884   10.72993684801325   20.15973166299446
C         7.99307595112112    9.40577417445328   18.58593083111384
C         7.96906473380754    8.80929098106704   20.92985897926217
C         8.65646592692000    7.17146016308522   19.28316475118404
C         4.29288703838273    8.50915528119862   18.92837861972847
H         3.60402132345051    9.33218330047921   18.71868131114722
H         5.19842350284626    8.90890567264707   19.38468719561967
C         7.73575797870649   10.38994314690887   17.48767719049993
H         8.58989378031173   10.46491874391996   16.81555769205715
H         7.52209553962328   11.37454171116456   17.89419228231048
H         6.87443513011497   10.05731752456285   16.90906985122548
C         3.46080535550769    7.21209166277036   16.93955550428290
H         3.75517477909610    6.71031848790301   16.01679553383608
H         2.75207393977830    8.00702447713129   16.68954460963500
C         7.68178099537179    9.16970241050651   22.35516155148296
H         6.64892884547935    8.91745027800750   22.59713887884772
H         7.81653831645278   10.23562327195020   22.52286963803030
H         8.32888571418471    8.61908037525680   23.03359707518308
C         3.61433404268834    7.50697984275378   19.86717957506016
H         4.33050353138589    6.72178997647640   20.11886353543013
H         3.31991927431314    8.00733646290335   20.79250719919646
C         2.79032371613753    6.20900255889126   17.88493792320341
H         1.91022123046142    5.77860096348681   17.40172834783946
H         3.49110917267028    5.39549005933839   18.09066146126274
C         2.39459311934821    6.88690186397912   19.19264992073181
H         1.65586135136831    7.66699827725608   18.98840458499388
H         1.93362854792154    6.15608646007627   19.86041837783208

