133
CSD_code = RIXSAU | q = 0 | S = 0 | Stoichiometry = C63H64BP3RuSi | MND = 6
H        13.94760939434403   10.56639463867764    4.50720284597494
H        12.48167358999024   11.88048222203707    2.49257512237178
Ru       12.70128750461410   11.21729325012772    3.87660663613748
P        12.11192571698802    9.08429016511755    3.04324181013265
P        12.10004670444875   10.25323636402164    5.96471358414522
P        10.42633656523370   11.84431199176046    3.69829276253853
Si       14.72402908939563   11.72724875846811    2.82973341936359
C        13.27510865201587   13.15777486638267    4.83141554551488
H        12.43615879321930   13.74932533578669    5.21122189525688
H        13.84233902607149   12.85571189618927    5.72698234572861
C         8.47786644253077   15.26412301774560    4.91662157082486
H         7.58466269882805   15.51430323535901    5.47124885440912
C         9.96286616130496   13.59680648108903    4.01812585613003
C        10.76140947038283   14.61417215156754    3.50220710410742
H        11.66872392760115   14.36514335080699    2.96895964363701
C        10.97613084931718   12.50851932353688    7.22871752697525
H        10.86313082621605   12.91064443581286    6.23241371438835
C        15.09135441412021   13.54928844701319    3.15006137129218
C        12.40465455463765    8.70516241644851    1.26992219181867
C        10.35009310055644    8.68739119522766    3.26844294374883
H         9.84764151866846    9.15449126222551    2.41564323673502
H        10.25005801660827    7.60608270694912    3.12415410394717
C        13.39501468656328    7.84059078249844    0.81290954774735
H        14.03077890348401    7.31810454714351    1.51184646011565
C        13.05687658855341    7.69157124178149    3.78027138830549
C        13.51693253060298    9.40706651296610    6.78463856477259
C        10.78948219759820    8.98659403360905    5.90456413314079
H        11.29124690053665    8.03059568700891    5.74538147914231
H        10.33907680852003    8.96108938325856    6.90271101887841
C        11.69577011720043   10.75662832194470    8.69219823226099
H        12.14937409792645    9.78750932552760    8.84820132495074
C        11.61564458845529    9.36601798472696    0.33022423227094
H        10.86011066508303   10.06209674097475    0.66240948971410
C        14.16518335162645   14.07373061172039    4.07184581528308
C        14.67427617537704   10.15559434901676    6.98999258234956
H        14.69652313748044   11.19377307635132    6.68292400425997
C        14.13098769284650   15.44865959916964    4.28855822846485
H        13.40308400429154   15.85671832844828    4.97723591738300
C         8.81520943779939   13.93552034686935    4.72608428080545
H         8.18318675241209   13.16441877343880    5.14089566936910
C        14.44111096789471    7.83428997383594    3.85484267017876
H        14.89722223632376    8.73399226481089    3.46559592161104
C        10.51672499321720   13.23283551766576    8.31371403546995
H        10.05299640345614   14.19628093435055    8.15576215606447
C        13.50127125167269    8.08662140202804    7.21545319126131
H        12.61561884762804    7.47972127810704    7.10577937996599
B         9.68019841137462    9.20873088263230    4.69932683353645
C         9.68100388633985   11.83693251030116    2.00899892857400
C         7.62736063550079    7.61742632554344    4.12583236315555
H         8.04391677601986    7.45863147150022    3.14030727157732
C         6.47925062108486    8.00299439729097    6.59541731386315
H         6.03323080647580    8.16708454488726    7.56791930148413
C        11.57175058331988   11.26673410322104    7.40198563828752
C        10.29525051292000   12.57857658976672    1.00164160679719
H        11.22210242999300   13.09720619713683    1.20551004316652
C         7.68095513264914    8.60689000675599    6.27557926031498
H         8.14700581886801    9.24745017175980    7.01386733488152
C        16.73779383021816    9.61534308835638   -0.12453670179258
H        16.59465793050869    9.41638949450646   -1.17745261242047
C        12.77373429473795    8.28344574150567   -1.46632655436831
H        12.91438222728940    8.11448919844933   -2.52404750282312
C        15.23480310710540    6.84167238352246    4.39544199808129
H        16.30575150665980    6.97743524761450    4.44509781315205
C         8.30236126376341    8.42645958384344    5.03837870118226
C         8.58670902641326   11.96182990105706   -0.56274516359961
H         8.16482196126626   12.00522782767362   -1.55613655326015
C        17.10777114205020   10.14093654207527    2.57377159192064
C        15.85762204823165   10.46269018089381    0.52952004873601
C        17.04581981956160   13.85577499052817    1.57599941783805
H        16.57533335094483   13.52288537576169    0.65193787742180
H        17.56694281793661   13.00285902185145    2.00446576558071
H        17.77594998771723   14.62225557855233    1.32705149919586
C         9.29686592320148   10.83060522930620    4.67812490108385
H         9.37482135417435   11.19583350882843    5.70820274878118
H         8.27152014941124   11.02828431798559    4.35183847249762
C        13.57546369886511    7.63476338981394   -0.54343850707756
H        14.34880619746937    6.95856342979590   -0.87880193240296
C        15.77450058815073    8.26726505576366    7.97073725264221
H        16.65017395982110    7.82161128708942    8.41929923569331
C         8.50194531341558   11.16333202314261    1.70342862929100
H         7.99639804059755   10.56650763643983    2.44637369148557
C        17.32998026280064   10.43015836596130    4.02839146221682
H        18.29812143172001   10.05443167381089    4.35206416786128
H        16.56162999406986    9.95854217740582    4.64205305751584
H        17.29067782195057   11.50167371532928    4.22036408175773
C         7.96604743865085   11.22186479266546    0.42770801509132
H         7.05573262540000   10.68195908143203    0.21018724393325
C        15.79270968285542    9.59493712395340    7.57432176498725
H        16.68093062925369   10.19316267621624    7.72030575075036
C        16.02018364941048   14.39464305116722    2.52786101199625
C        16.03289618210274   10.72386204944246    1.89125012760123
C        14.62366263344471    7.52105544799858    7.79681316483706
H        14.59333614183266    6.48916766571555    8.11573562864796
C        15.01733182944288   16.29603684170766    3.64831317735954
C        14.98014292125728   17.77585397348215    3.87914864145199
H        15.91271082627508   18.11162504948697    4.33205607561589
H        14.15840016709502   18.04707700562772    4.53732886441576
H        14.86208012798124   18.30513260543727    2.93424536518184
C        10.64965340279504   12.72137537722904    9.59278258484380
H        10.29341430706978   13.28366234775288   10.44345621724023
C        15.97004221474583   15.75207834885633    2.78864721112107
H        16.67610737875612   16.41356859609526    2.30543800751652
C        17.79373756574061    9.01582369617780    0.54488263899392
C        17.97055845538983    9.29827759265532    1.89365751246012
H        18.80025032592746    8.84778413534156    2.42116549930272
C        14.65498882480762    5.67732760848607    4.87108091234848
H        15.26895639831379    4.90071012526292    5.30315669818204
C        12.48978729122723    6.50604432283936    4.23388848314206
H        11.42344502184668    6.34545663745851    4.17340512622259
C        14.74087188732321   11.11396122388203   -0.22501960489188
H        14.73431908295744   10.79175642441769   -1.26343182114351
H        14.84038933473891   12.19875199876256   -0.20002500192694
H        13.77843218144257   10.86055005498290    0.21634970606055
C         6.42303535809437    7.00618113812416    4.43063194228466
H         5.93294568614737    6.38313673370912    3.69349733966300
C        11.79073295460469    9.15322098818575   -1.02341190745301
H        11.16076954273748    9.67242944116583   -1.73153671841103
C         9.75621722258152   12.64312969343893   -0.26915011992677
H        10.25401744893956   13.22270255306033   -1.03334910851288
C        18.73468505761890    8.08752126696920   -0.15951412109525
H        18.49587873364536    8.01868058952798   -1.21766232942657
H        18.67596232220928    7.09006247190498    0.27513471587057
H        19.76180405019240    8.43460955991667   -0.05508972001586
C         5.84278898496233    7.19142646095998    5.67215698303364
H         4.90316511953347    6.71494151527576    5.91586252633907
C        11.23925699364957   11.48086188598244    9.77718007718136
H        11.34134005763904   11.07387942415303   10.77305001950607
C        13.28422381518797    5.51161149846707    4.77967025883991
H        12.82529924662559    4.60010211455554    5.13586586816567
C        10.42120861971694   15.94014673151790    3.69189988829587
H        11.05460737424701   16.71786731584093    3.28958702690933
C         9.27770704593769   16.26950147371883    4.40096405767967
H         9.01224081936805   17.30553959172938    4.55361772895510

