81
CSD_code = RIXTUO | q = 0 | S = 0 | Stoichiometry = C40H32N4O4Pd | MND = 4
Pd        8.13721770929303   15.00420025796021    2.83415909987399
O         7.12329535221427   13.15874734288272    3.04438586668517
O         5.79826199580489   14.67040560358582    3.96524338227313
O         9.04732101338831   14.62422720739783    4.70664425970780
O        10.39963537419669   13.73672368227599    3.19910865017756
N         7.59868112707559   14.05867321066223    0.15048062245365
N         6.62535959752563   15.98531960302103    0.44667653816068
N         8.75291861008910   17.58261808060496    3.99363813232178
N         9.81479731802229   17.37333444917201    2.10237925417053
C         7.45456176643965   15.07824533796370    1.01510917882120
C         6.20903907245685   15.52963952945194   -0.78726252374964
C         5.34676284365267   16.05483678779651   -1.73393046424575
H         4.84956804869523   16.99898359019504   -1.57554115952458
C         5.14840167345172   15.31314317183802   -2.88415805215604
H         4.48170748165876   15.68746043128993   -3.64571425200490
C         5.78606612570692   14.09104748837244   -3.08185597479383
H         5.60295296055693   13.54586949851159   -3.99509387552792
C         6.63681059745650   13.55354598671307   -2.13324684102688
H         7.11498728551574   12.59914523001747   -2.28491244709999
C         6.83842020654884   14.28550397550611   -0.97366633453998
C         8.47250672681388   12.93270442372680    0.36328811690665
H         9.10800971898646   13.14004331179658    1.23797835321492
H         9.09425351465703   12.78460041735850   -0.52144828505531
H         7.89106134166104   12.03020074238425    0.55982337932820
C         6.60280951557466   17.33224929063105    0.89385943072767
C         5.55764099010568   17.80750847223707    1.69873077289319
H         4.76214902140989   17.13061554348666    1.96792294433345
C         5.60188096148766   19.08944884089355    2.17142101361987
H         4.82427632966102   19.45698865337853    2.82408115796778
C         6.66096704091454   19.95419853315889    1.82392967008805
C         6.72499770451811   21.28247261118327    2.29550001675873
H         5.93492675031804   21.63945681852272    2.94014651522139
C         7.75814791729181   22.10346761098458    1.94142381283867
H         7.79975513868190   23.11732398401950    2.31032648204217
C         8.76723465187907   21.64241889884578    1.08219361962232
H         9.56346218795346   22.31101766530583    0.79206875132036
C         8.74350387250303   20.35868692476710    0.61623056370498
H         9.50965364926602   19.99994844082631   -0.05546342868881
C         7.70756445941290   19.47723679859132    0.99028830518108
C         7.68418302953850   18.12847093187073    0.56270447380302
C         8.85427969745364   17.47990749275515   -0.08671976295302
C         8.87858926085591   17.16942048758530   -1.46699487773748
C         7.90275622221404   17.66339136293997   -2.35795803086042
H         7.14771197177635   18.33493592643427   -1.97620686258658
C         7.92349789775145   17.31167031521021   -3.67758728343822
H         7.17318171919460   17.69315202978819   -4.35337269161161
C         8.91930872565573   16.45239342059087   -4.16662152961932
H         8.91318589540806   16.17530683766386   -5.21012812939341
C         9.89597832551613   15.98348231584890   -3.33413018827146
H        10.67659603537913   15.33849047355458   -3.71070397050928
C         9.91322351397129   16.33482142600682   -1.96772330807145
C        10.91457142468777   15.86891889760677   -1.08998133944822
H        11.68311159740329   15.21741372769928   -1.47811459145152
C        10.91544509168640   16.22820942614980    0.22901584644450
H        11.66678103118541   15.86888037853080    0.91444526065961
C         9.88154367594844   17.03464426191943    0.72553738599213
C         8.90896601857696   16.78707972038372    2.92090139394900
C        10.26739225317135   18.54663305720129    2.67053833345398
C        11.20321864308211   19.48089783791304    2.26215488076932
H        11.74256514317094   19.36463173179226    1.33515553616649
C        11.41752714156342   20.56259196223138    3.09679300857791
H        12.14085727932779   21.31216057917884    2.81484147257022
C        10.72399555954070   20.70623473990888    4.29576064654975
H        10.92168965661879   21.56708749637651    4.91592264897071
C         9.79861085979542   19.76864585927032    4.71664789103051
H         9.27619307564127   19.87713415988141    5.65357005502964
C         9.58053084296961   18.67696270486260    3.89108559383483
C         7.80749260222425   17.33920181682153    5.05366264351763
H         7.14174350014158   16.51646393483988    4.75064066785997
H         7.22347108781735   18.24384456716863    5.23218133367803
H         8.32658537032961   17.04943353090597    5.96893103853452
C         6.12780175990858   13.49371434481477    3.74942102154644
C         5.27172125725303   12.35582272344891    4.30019242477110
H         4.49487984900364   12.12187888620148    3.57394136889986
H         4.80149627744018   12.66639189107799    5.22865398623195
H         5.88372472919151   11.47239101940584    4.45879905581961
C        10.02473432874438   13.89409232324798    4.37122709181106
C        10.79565573861944   13.23111648554216    5.51016450083541
H        10.09875327155350   12.83719945698646    6.24501570420299
H        11.42179710910564   13.97965857784805    5.99288210858803
H        11.42318387672824   12.43656243319054    5.11761093987568

