38
CSD_code = RIXVUP | q = 0 | S = 0 | Stoichiometry = C15H19AuOP2 | MND = 2
Au        0.00000001773939    1.30521263948385   -0.10928809938614
P        -0.00000000100938   -0.96513007878299   -0.11821259399013
P        -0.00000000374010    3.60743785253202   -0.08571111974602
O         0.00000000598928   -1.66742024745333   -1.41881776345658
C        -1.37508940754503   -1.57042100905797    0.93325746913734
C        -1.76969086760833   -0.91328866236427    2.08970745169523
H        -1.26554379832928    0.00004836422684    2.38178361870346
C        -2.80100840785243   -1.41974215253962    2.85685460386974
H        -3.10521065167409   -0.90941116728087    3.76072792975491
C        -3.45086212913288   -2.58040931518592    2.46578774881798
H        -4.25993637161333   -2.97224528382077    3.06597564786788
C        -3.06860682864302   -3.23191687476619    1.30517726915177
H        -3.58062216353355   -4.13289050995125    0.99745163008700
C        -2.03094670929008   -2.72730386854642    0.54209728180108
H        -1.71772398189944   -3.21156930376185   -0.37204549492417
C         1.42262980089872    4.42440967745252   -0.88544582347002
H         1.34633135922014    5.50916519864200   -0.80154586824176
H         2.34026311672434    4.08077392217068   -0.40929210300293
H         1.44702855168437    4.13581447928676   -1.93562286619813
C        -0.00000000201950    4.35973174311615    1.57767154874928
H        -0.00000000051824    5.44826010693472    1.51095642575941
H        -0.88555544269723    4.02464048564958    2.11653231778126
C         1.37508940769349   -1.57042100691866    0.93325746725641
C         1.76969086608868   -0.91328866273050    2.08970745170549
H         1.26554379763629    0.00004836420887    2.38178361851843
C         2.80100840607713   -1.41974215452209    2.85685460374987
H         3.10521065050725   -0.90941117001836    3.76072792984065
C         3.45086212828020   -2.58040931652407    2.46578774756353
H         4.25993637095147   -2.97224528573371    3.06597564614649
C         3.06860682866010   -3.23191687446117    1.30517726687219
H         3.58062216384003   -4.13289050947263    0.99745162726212
C         2.03094671103711   -2.72730386575391    0.54209727837142
H         1.71772398271516   -3.21156930194922   -0.37204549757420
C        -1.42262980389614    4.42440968349524   -0.88544582508399
H        -1.34633135758628    5.50916520430111   -0.80154586949376
H        -2.34026312107722    4.08077393136594   -0.40929210510355
H        -1.44702855445804    4.13581448517473   -1.93562286773925
H         0.88555543838073    4.02464048355447    2.11653231694847

