71
CSD_code = RIXWAX | q = 0 | S = 0 | Stoichiometry = C33H25IrN4O8 | MND = 6
Ir        8.12817445228095    3.18838800333971    8.14940801499267
N         6.76370392516836    3.16089324007241    9.58545552597785
N         6.53722529098580    3.84022675752077   10.71276628033708
O         2.55273027776569    2.99345145090512   11.89150276618182
O         4.77471225561585    2.58093334950638   10.29379954885060
O         3.57465815020362    0.49954424504587    8.54997983528988
H         3.62818600640630    1.01068990378449    9.36594925254906
O         6.91745875773304    4.76711192013394    7.28762776093192
C         3.39007596336632    3.70823906242835   12.67451309783335
C         2.87558831592394    4.20028953972112   13.87259150656294
H         1.84802103206650    3.97373152823133   14.10808140160596
C         3.65966378212723    4.95304335911651   14.72013822871487
H         3.24208139997625    5.32330827880065   15.64383455660647
C         4.97902265386864    5.23813374096601   14.38728345399748
H         5.58932965024497    5.83137763460347   15.04965583404125
C         5.50512958862875    4.75696471130829   13.21081794796321
H         6.52541952289259    4.95585056109394   12.92554533666464
C         4.72686156709848    3.98137324027486   12.34116292878123
C         5.36084182238302    3.50310238775238   11.13843521917447
C         5.70812399936649    2.40598329986473    9.33549789357116
C         5.70926861852862    1.57918082014740    8.17785402576495
C         6.88941113118079    1.76119539767755    7.40887343095166
C         6.98643080579741    1.01942360775483    6.24120191805755
H         7.85503639694118    1.12005117117498    5.60824084064049
C         5.97686418983894    0.14699311088695    5.85704401929348
H         6.07749224891725   -0.41377865279530    4.93907261078068
C         4.83977745990947   -0.02743731018147    6.62574098413238
H         4.05811478642746   -0.70889127394337    6.33174754409031
C         4.69242724450731    0.68800654758294    7.80439849663277
C         7.12633327214801    5.99929201104285    7.40505305780603
C         8.12794941721106    6.62796776872971    8.14911493833867
C         6.16868618771992    6.91686306665187    6.66442989805596
H         6.71858823855396    7.51846226945566    5.94400515922302
H         5.67377308083117    7.58712148132594    7.36413880813259
H         5.42387526188857    6.32246534449279    6.14146183190815
H         2.98666610666146    2.74653552665209   11.06531521365669
H         8.12791741064403    7.70804251760168    8.14895047848906
N         9.49264290177765    3.16125967141780    6.71319661414755
N         9.71888774388640    3.84034694351379    5.58566292944031
O        13.70310458357059    2.99289918521560    4.40677508524164
O        11.48133646369028    2.58086948014649    6.00435240003226
O        12.68199729996660    0.50014259449898    7.74798030477680
H        12.62828574130931    1.01140155004518    6.93209758297804
O         9.33856680274992    4.76744465651985    9.01115677706057
C        12.86593425993660    3.70788140149150    3.62376625479752
C        13.38072063207088    4.20016428692094    2.42591445153658
H        14.40835787495998    3.97366086852564    2.19067867717053
C        12.59684352311585    4.95303725074088    1.57829700406718
H        13.01467403976979    5.32350803425101    0.65479879553124
C        11.27735448395202    5.23792536002736    1.91081098243127
H        10.66717710039760    5.83117580315935    1.24832490664302
C        10.75098301627188    4.75662693153711    3.08710907499038
H         9.73061062964741    4.95545072774983    3.37213448430117
C        11.52909414357197    3.98104800457575    3.95690914205466
C        10.89509551342131    3.50298398889142    5.15971139863258
C        10.54817183768257    2.40623671044718    6.96294816505829
C        10.54729014360321    1.57943696422130    8.12057086505766
C         9.36728621605169    1.76134100223089    8.88979058500651
C         9.27057861550563    1.01943132966088   10.05740862011292
H         8.40201182978680    1.11976903118104   10.69046953780374
C        10.28027293504185    0.14699935235892   10.44124235507613
H        10.17979652698303   -0.41401855594272   11.35908172670516
C        11.41723968113131   -0.02725813711960    9.67232769273474
H        12.19902230102505   -0.70867511912814    9.96608490836244
C        11.56430618286289    0.68834112031670    8.49373976004479
C         9.12961028425925    5.99957084331414    8.89336567739383
C        10.08716562987987    6.91746424094686    9.63371739976145
H         9.53719452767197    7.51961944485232   10.35363050740552
H        10.58234374955929    7.58720734606246    8.93369188841869
H        10.83179417904246    6.32330401789071   10.15722402206020
H        13.26892833406138    2.74567405073435    5.23273977658492

