56
CSD_code = RIXXUR | q = 1 | S = 0 | Stoichiometry = C23H28AuN3P(1+) | MND = 2
Au        6.25641129210605    0.28197641685831    5.58929027400873
P         5.78285936482377    0.15998333363022    3.39742432376136
N         6.65832867954753    0.39891904037582    7.61377738879828
H         7.22558844741088   -0.36920244592633    7.94222426509720
N         5.72218331493039    2.39638321546519    8.33032415426659
N         7.49561219975628    1.48205525408097    9.50271248858221
C         6.63314026708748    1.40219886740915    8.45799472464824
C         7.10875498694866    2.02520524868597   10.78950443598609
H         6.06927517006878    2.33750434493362   10.77289696273398
H         7.22199290219507    1.25105616797931   11.55217771572161
H         7.73961596967006    2.87254785644787   11.06527017712685
C         8.69259406743126    0.66937816812728    9.53635940637816
H         9.10476080720215    0.56381579149053    8.53361082963237
H         9.43028526135474    1.17670812600311   10.15714126834220
H         8.51024502824148   -0.32310362395080    9.96270843052181
C         6.05505710841596    3.78105721265453    8.59583705864517
H         7.08356009935930    3.87069486593099    8.93104450284933
H         5.94219781971383    4.35972139272175    7.67501640519744
H         5.38961650868313    4.20686550471618    9.34951285228877
C         4.51814606377470    2.21596784179599    7.55648469307289
H         4.22176705884838    1.17059724856825    7.58093178989767
H         3.72911815546658    2.81880356033930    8.00782443795143
H         4.64199685060004    2.53071918987223    6.51434025417100
C         4.40114823910808    1.22642323978810    2.91113412140594
C         3.30294341959334    1.26920394745526    3.76702196627040
H         3.31958380555577    0.68627432276482    4.68017451612413
C         2.20562376477737    2.04397727013211    3.44359923745406
H         1.35264262601837    2.07411565386822    4.10442241457827
C         2.20435706649899    2.78342202263832    2.27029288008871
H         1.34847122069402    3.39046078655537    2.01867697878010
C         3.29827148252637    2.74607630709063    1.42077343133518
H         3.29433898083759    3.32266641053908    0.50833475314386
C         4.39986875352373    1.96938569971826    1.73543904729520
H         5.25442238415132    1.93850331216129    1.07375146773305
C         5.30883876799765   -1.48978477142731    2.82392501700972
C         4.37270188151298   -1.68097819241787    1.81220968353520
H         3.88448036565203   -0.82997398005185    1.35773118616202
C         4.07141592734984   -2.96576505700394    1.39695120149826
H         3.34543221438987   -3.11768693813545    0.61280203314787
C         4.69845183618195   -4.05399941191821    1.98307063961335
H         4.45923267086942   -5.05350629801037    1.65424773510050
C         5.62913222446619   -3.86387484621496    2.99303318500147
H         6.11415458089686   -4.71298006100970    3.44999783552561
C         5.93203060691786   -2.58408339849242    3.41798292367412
H         6.65275537190473   -2.41915125075823    4.20984030116735
C         7.14812524227965    0.65921671746738    2.31754685368522
C         7.55433336512909   -0.08611431083873    1.21665256677049
H         7.05144228192450   -1.01106126356529    0.97163222525962
C         8.60690889955702    0.36563807553716    0.43906534868555
H         8.92423525794926   -0.21066381020631   -0.41654710985186
C         9.25094025048212    1.55053074248152    0.75530653389927
H        10.06976279993727    1.89750954183877    0.14418517161105
C         8.84994596489610    2.29143902306138    1.85738086987355
H         9.35530093345355    3.21292765422521    2.10366349578934
C         7.80497451826350    1.84478012933798    2.64227493267175
H         7.48292487109475    2.40832015515075    3.51001771628621

