26
CSD_code = RIXZED | q = 0 | S = 0 | Stoichiometry = C13H9MnO3 | MND = 8
Mn        3.05580046509424    4.65444036112576    2.37242122961459
O         1.55810127230157    2.35940242522230    3.42275218674306
O         0.87326693330532    5.79566321297900    0.76729326690216
O         2.76784912997377    6.63177383240645    4.52670182750000
C         4.88385899459131    2.45931107959830    1.90892190691274
H         5.79688791281933    2.17002162341944    1.36018886864205
H         4.39275872384928    1.53284727601098    2.21817829534757
C         3.97800721726027    3.28245708868211    1.01623737769646
H         3.51196071130449    2.71864099048947    0.20921482152320
C         4.38034866803201    4.60336343458005    0.73356361486631
H         4.14146944231578    5.07411205252774   -0.22088709803906
C         4.96482024244394    5.35601836774405    1.76066495872238
H         5.34442570979986    6.35562216724092    1.56604388721222
C         5.99328864600492    5.41243362230213    4.03539635470405
H         6.12852601985029    6.47965789711858    3.92249444463807
C         6.37603490477673    4.78357066360754    5.19790777879416
H         6.81618761689819    5.35675769794688    5.99972598191123
C         6.19728588294515    3.41159047703317    5.34155294418588
H         6.49120104463309    2.92220766395782    6.25746037002110
C         5.66685561018789    2.67137567829158    4.30347108630796
H         5.55913735560684    1.59999472257162    4.40189985450641
C         5.27495977933287    3.28190206406684    3.11523078811931
C         5.42029190056057    4.68523191545469    2.97617954614895
C         2.11131746170892    3.28145709857949    3.02461704522453
C         1.71023807754876    5.34980281951412    1.42096367560077
C         2.84772027685401    5.86584376752939    3.67600498619410

