62
CSD_code = RIYCEK | q = 0 | S = 0 | Stoichiometry = C28H29ClCoNP2 | MND = 4
C         2.16334867410602    3.38371043428125    4.18957256448592
H         2.29757630716795    2.46191996000854    3.62220063553369
H         3.14559899661706    3.83447506769199    4.35740495975973
C         1.48907883284328    3.09036246326627    5.53330508613018
H         2.01503934338058    2.25785097168853    6.03199324589791
H         1.58591670429055    3.97922354480374    6.16316588462469
C        -0.29646758849841    1.46042097337460    4.97853255406208
H        -1.30118210172885    1.25447686423347    5.35765445706384
H         0.39502010271307    0.71731428452053    5.41012054660616
C        -0.33104300109704    1.29346075589045    3.45555798044159
H        -0.68467013357618    0.29011541161920    3.20310215404103
H         0.66365890132518    1.43575801890135    3.03658307542685
C         1.72727786786573    6.14447970014724    3.79450821118656
C         0.89903508172052    6.89248599721719    4.62285561834302
H        -0.09120446288316    6.50784808812389    4.86273603432957
C         1.32439055375115    8.10898318446539    5.12363974401275
H         0.67750341247725    8.68726625837346    5.76704684210652
C         2.58141955025495    8.58563227758019    4.78936167101029
H         2.91748750647711    9.53751064018982    5.17404215275969
C         3.40810401771581    7.84776290816351    3.95592309672109
H         4.38528496690166    8.22724095205063    3.69325456075836
C         2.98636940527784    6.62880477885657    3.45753580673578
H         3.62654075662807    6.05581894280653    2.80003369853352
C         1.76521207733835    4.46626581212962    1.53435967549495
C         1.02594115747978    5.15986045328706    0.57861832341883
H         0.13226639397601    5.68429826805921    0.89443531091554
C         1.41761222103239    5.16881640454525   -0.74463158542901
H         0.83914783383138    5.71131290566404   -1.47765316411787
C         2.55160667239629    4.47171198760612   -1.13076095293252
H         2.85937254071430    4.46935746882871   -2.16606491240995
C         3.28928497501474    3.77620103058657   -0.18873113937798
H         4.17429428756991    3.23316564566252   -0.48940953096598
C         2.90174814072213    3.77149731606781    1.14052989070237
H         3.49419722526617    3.22876985037182    1.86298171544672
C        -3.02446073491709    1.64680509335114    2.72361620322283
C        -3.22112617813281    0.58080957874231    1.84916683999189
H        -2.45330824043626    0.32516411471342    1.13113059198187
C        -4.39834157961259   -0.14123091898336    1.89313131012336
H        -4.54949514666803   -0.96549718081415    1.21062893189252
C        -5.38484007309872    0.19140716136155    2.80889017533888
H        -6.30441739123362   -0.37491046161000    2.83813988067394
C        -5.19267329032407    1.25039921914487    3.67933030579320
H        -5.96209946697306    1.51349499501446    4.39021911425102
C        -4.01640877929190    1.97968559653444    3.63683606957178
H        -3.86213993379630    2.81871295462686    4.30040927804503
C        -1.05794412491982    2.52208863949175    0.93300101034498
C        -0.01000620294598    1.83121697087427    0.33842466956476
H         0.64329037715273    1.20464394136510    0.92681313182851
C         0.20162250844652    1.93049074293514   -1.02604087209048
H         1.01781786209978    1.38723562094482   -1.48031124509402
C        -0.62469802359823    2.71746170772330   -1.80837274913894
H        -0.45406577303237    2.78884026481038   -2.87236357654342
C        -1.67013276095226    3.41438477093606   -1.22244731324590
H        -2.31532917372063    4.03275697661075   -1.82917995650859
C        -1.87897301539261    3.32097172959207    0.13848983900016
H        -2.68178849235031    3.86973782205166    0.61470024785104
Cl       -2.65996218403929    4.87771388144288    4.89825620274449
Co       -0.97747848224000    4.35677397949864    3.84381762387213
N         0.06469650600846    2.81139517482628    5.39621004272416
H        -0.39349126565808    3.00955282233929    6.27935441638898
P         1.07596749903269    4.53860139081436    3.21864875505723
P        -1.44778165846979    2.57371379062339    2.71139686105754

