58
CSD_code = RIYCAG | q = 0 | S = 0 | Stoichiometry = C16H37BrCoNP2 | MND = 4
Br       15.92716632427094   12.03446937016616    5.91567318577047
C        19.02392213782340   11.14158482651620    9.51260072131417
H        19.78074862114849   10.77976404990725   10.21049432673781
H        19.47782471963725   11.90766736834485    8.88129294945414
C        17.85317832196123   11.75754015779844   10.27221332972274
H        17.39306822609671   10.98962982709641   10.89869772213248
H        18.21077921091173   12.56273318274416   10.93626841053393
C        15.53598777503908   12.46877624526305    9.89152700428937
H        14.97454434501981   13.06475743359981    9.17027083390585
H        15.59411065650981   13.03461509667532   10.83741920604578
C        14.79964752388425   11.15039800264536   10.13888861448144
H        13.78586865696238   11.35285049542280   10.48812767997827
H        15.31956560140507   10.58283399007026   10.91400206082731
C        19.79472289919865    9.67450881967626    7.17719887917655
H        20.74912403364830    9.63404637974732    7.71665327894431
C        19.62500451476091    8.43450722011914    6.30304158892622
H        18.61844571605220    8.41086351913413    5.88459658053293
H        19.78759731715582    7.51806730063628    6.86333237968978
H        20.33528617607704    8.45449516170363    5.47724512152012
C        19.76100513399428   10.91610568872743    6.28866335806485
H        20.49742531212480   10.83017625817257    5.49079229323257
H        19.97695502646989   11.82791956201330    6.84197132941506
H        18.77773891013215   11.01850739381509    5.82582891356232
C        18.66624866268202    8.31244623989461    9.56200361141712
H        18.13687288651209    8.62974150035557   10.47314149355834
C        17.97244174069183    7.06091868552546    9.02530625208204
H        18.62464990030664    6.50946568567201    8.35330420060652
H        17.07462464415680    7.33210177441953    8.47526511041765
H        17.69570630005790    6.39290322874280    9.83968855278252
C        20.11332147091478    8.00312733443382    9.93134203267194
H        20.13207931802661    7.22538291923467   10.69418115916339
H        20.63250637421317    8.87192827817674   10.32964913584524
H        20.66708384604202    7.63824563044866    9.06986694524363
C        13.06490609226254   10.41565371405373    7.91510338520722
H        12.34373559465565    9.92180252992312    8.57785926009866
C        12.73823100530831   11.90455612778790    7.85391003048395
H        13.48319208351145   12.43152248833887    7.26267757305276
H        12.68030016806203   12.35484160960002    8.84209598045341
H        11.77343292100272   12.04108934992466    7.36757193515444
C        12.95820429038141    9.82339268195866    6.51175162630758
H        11.94799928405068    9.95332328461691    6.12641974445455
H        13.19701335176598    8.76388568905068    6.49745620420682
H        13.64313347176432   10.33733272068832    5.84183009913278
C        14.53849804450170    8.41742101346415    9.48088875462046
H        15.50788464145434    8.27301414576652    9.97735049012614
C        13.44659306092242    8.34089033282430   10.54416502831150
H        12.45892508240843    8.47644912027240   10.11026370905208
H        13.58465682849250    9.08084770162828   11.32763517077608
H        13.46978003768094    7.35439211118481   11.00628631599347
C        14.35137371599886    7.29770571001361    8.45970143217049
H        14.59364951266974    6.33143572446519    8.90035023086175
H        14.99279562924124    7.45425115591157    7.59269941396309
H        13.31848955237049    7.26029080648192    8.12116194015582
Co       16.58494588035952   10.64411374487510    7.51182697501023
N        16.85620868411121   12.23254356943895    9.32677355043488
H        17.19181215326473   13.08430192238256    8.88459016537174
P        18.39464478187764    9.77393310534399    8.41257192773855
P        14.76904182781985   10.07123101317530    8.62251079486464

