69
CSD_code = RIYCUX | q = 0 | S = 0 | Stoichiometry = C36H30ClPRu | MND = 8
Ru        0.00014675762523    0.50588892463610   -0.04816417036145
P        -1.87652432084206   -0.78980927686974   -0.04945164381351
Cl        1.00609145552107   -1.04519505515233    1.39884917378293
C        -0.72142737830909    1.77581053995183    1.21963376255184
C         1.66448533948073    0.01331189091756   -1.58293051186686
H         2.26370695567722   -0.88554567943217   -1.63331702014341
C         2.03727626676990    1.21633717825331   -0.90447280381734
H         2.96861568306586    1.37383702049068   -0.38015683044411
C         1.08757477030122    2.19952750651768   -1.21221159842356
H         1.13866899746898    3.24583038967674   -0.94139543709600
C         0.06765639893114    1.59581263398305   -2.00428713211970
H        -0.69320041552684    2.13927262300426   -2.55074673385822
C         0.47963324519165    0.25148724197855   -2.28043447790000
H         0.00213745692894   -0.42438908297417   -2.97844815691304
C        -2.32401258247704   -1.70388674988659    1.46178361414653
C        -1.87731337341442   -1.25412818309027    2.69798872880397
H        -1.23726030936338   -0.38190989116379    2.73818607575947
C        -2.22339240592010   -1.93808738698684    3.84980701045596
H        -1.86868733423013   -1.59076398535150    4.80897002960384
C        -3.01369137083923   -3.07272149028533    3.77261969700807
H        -3.27828774746025   -3.61012757961234    4.67157453701565
C        -3.45949756931154   -3.52571353582440    2.54084371613596
H        -4.07189488160183   -4.41380094924554    2.47999589654474
C        -3.11823243116031   -2.84579198132346    1.38669568514221
H        -3.46337594521042   -3.19841753478249    0.42385912663337
C        -1.64898469922042   -2.18869852931849   -1.20839744620869
C        -0.53017515516907   -2.99119461451957   -0.98862118982455
H         0.12727355865414   -2.76853981466933   -0.15786285838842
C        -0.26444732788985   -4.06419316253556   -1.81735677270410
H         0.60506182517781   -4.67954672920295   -1.63800411764429
C        -1.11095425925621   -4.34870001796852   -2.87737061347054
H        -0.90170202795776   -5.18327296570960   -3.53043713368970
C        -2.22870622801235   -3.56165970739198   -3.09472300519687
H        -2.89637341532509   -3.78466942552985   -3.91470021204202
C        -2.50256551669280   -2.48720696348318   -2.26485602022960
H        -3.38399292390806   -1.88782053450827   -2.44184362230841
C        -3.48282224692294   -0.11811510196316   -0.58432936519215
C        -3.53128169350324    0.49546392570976   -1.83443251681410
H        -2.62571943459275    0.55208238162287   -2.42469013840923
C        -4.71523711747117    1.01933552796676   -2.31408989561206
H        -4.74661947762463    1.48641807711771   -3.28818902951365
C        -5.86368154545766    0.94709803025804   -1.54074404160807
H        -6.79112423490790    1.35774502985690   -1.91212239196299
C        -5.81772603873217    0.35508711590626   -0.29057717815927
H        -6.70977463575058    0.30675064418765    0.31643587897436
C        -4.63372997653350   -0.17728823859111    0.19002982939238
H        -4.60343434861164   -0.63068127670670    1.16960520103671
C        -2.12804240106504    2.11824572381559    1.41684052891748
C        -2.85439786196918    2.66841947281549    0.35670310507947
H        -2.36103658690369    2.80335814348981   -0.59625089374890
C        -4.16186626703204    3.07503738458362    0.53242898631164
H        -4.70030330111478    3.51839358640290   -0.29255341552497
C        -4.78331208745591    2.91255825435324    1.75954921740308
H        -5.81039538743775    3.21858271755325    1.89214641250083
C        -4.07480986347109    2.37099736470484    2.81877107039801
H        -4.54882451116731    2.25432810434719    3.78263029116059
C        -2.75331492077871    2.00001727997561    2.65932319183971
H        -2.19587276526881    1.61380133114606    3.49986379865429
C         0.21493940451671    2.68689048929255    1.84133403089354
C        -0.11642366141927    4.04020543071319    2.03171086875503
H        -1.09203263752775    4.39101941466215    1.72617793063452
C         0.79685505000004    4.92360910566775    2.56703616051800
H         0.52873429641887    5.96365100182590    2.68700405734459
C         2.05412262703650    4.48383174751439    2.95505055216485
H         2.76495311515084    5.17883543206299    3.37741760480631
C         2.38759448078460    3.14652559760178    2.80755907173715
H         3.35808363363550    2.79514121574154    3.12726372116032
C         1.48751785582800    2.25869413905758    2.25380362745335
H         1.74235344798357    1.21003582434484    2.17997618393576

