46
CSD_code = RIYHEM | q = 1 | S = 0 | Stoichiometry = C12H25Cl2O4S2Zr(1+) | MND = 10
Zr        2.34088741773309    4.01805142857316    3.41039386444704
Cl        3.82803642592907    4.71124637337013    5.14908514089352
Cl        0.27371944435892    4.68899535860853    4.49386821944676
O         0.91810556711564    4.50774455243568    1.63855641305227
H         0.18695387219818    4.77047655395291    2.24388435560880
H         0.52465368596856    3.98111374731811    0.92313422205828
C         2.45993890888845    1.90857354040036    4.67318469016882
H         2.67888938175144    1.84163223588765    5.73398919834909
C         1.17730834895184    1.85753503667544    4.08836453020281
H         0.24203604328849    1.75458529474589    4.62250171112666
C         1.33173558889033    1.83764083560971    2.68623668439317
H         0.53641129444447    1.65278400846526    1.97374960885491
C         2.72029191712948    1.84465798979332    2.39538649071873
H         3.16802711059637    1.67889565352298    1.42437270103199
C         3.42359937048565    1.88371166693111    3.62892506210487
C         4.91549633595153    1.80224389825349    3.80897028493370
H         5.15880299900445    1.81349215190692    4.87398728431279
H         5.40854423527680    2.66166507716918    3.33824630352510
C         5.47173842724914    0.50091235140550    3.19409778767289
H         6.53572658735617    0.40279326526765    3.45483086841996
H         4.92490870190271   -0.35292911677452    3.59996253706321
O         5.30359438880428    0.41159690464076    1.80146860898478
C         6.14018713246191    1.24895120366872    1.04527707864955
H         6.06030416106400    0.91198158764780    0.01317052543868
H         7.18394525233009    1.16883112053092    1.36910582014016
H         5.82546878635738    2.29860404998748    1.10569201725773
O         2.32172498315247    6.15084412978651    3.21565124670450
S         2.05847859005310    6.86900220766776    4.54661905299653
C         0.76128563272814    8.04957156570360    4.06199909590202
H         0.65750321534456    8.79356084061022    4.84224712611697
H        -0.16291935074551    7.48823034168088    3.96979855430075
H         1.02158811708306    8.51062972004000    3.11690973616521
C         3.42387185827582    8.07230725536653    4.58866645042153
H         3.22143375846103    8.79031846859050    5.37433473428939
H         3.51280405057669    8.56627202783884    3.62915691681357
H         4.32621129122181    7.51901206759629    4.82558638272679
O         3.87266602343189    4.39737907153420    2.09708033613182
S         4.63654262758153    5.69803251600079    2.28784603601796
C         4.13225756535677    6.64543873600391    0.81701397078960
H         4.69930346574717    7.56776329489058    0.76790613189853
H         3.07290425331066    6.85609325626944    0.93308220850131
H         4.29716803931170    6.04607525593749   -0.07112537953092
C         6.29977158482446    5.25873560642239    1.68343271606855
H         6.77664517033794    4.64625774425165    2.44206601849771
H         6.87356742449689    6.16791420661381    1.54667226349694
H         6.22618031395217    4.70987491721127    0.75151439284782

