110
CSD_code = RIYKOB | q = 0 | S = 0 | Stoichiometry = C47H60NiP2 | MND = 3
Ni      -12.77627307263592  -11.80529771421260  -20.64836621360523
P       -12.63404727475104  -11.30131687054838  -22.74262987174760
P       -10.70363276547390  -12.37704850964131  -20.40446208883053
C       -14.40463523149979  -12.30679216433739  -19.84929725201527
C       -14.43618736519294  -14.74993623928392  -17.43275034927499
C       -14.17769815901210  -11.65696284896728  -23.73630469344073
H       -14.08037434594306  -11.32018930903876  -24.77191963613154
C       -15.52699893464903  -14.26741501509914  -18.15616592344570
C        -9.52361272496861  -12.22661036428109  -21.81551459760592
C        -9.92527696951302  -12.23704184076582  -23.19220097079803
C        -7.53393964489394  -12.50364091825486  -23.77733591111472
H        -6.78986229357026  -12.65535316778816  -24.54596363516122
C       -15.21226554808535   -7.30949003867184  -21.52216973192147
C       -17.97018707738376   -9.74066341407631  -20.62363842126866
H       -18.58271905373162   -9.40134461945739  -19.78860338012632
H       -17.84349270223973  -10.81675255487783  -20.52401951072471
H       -18.50871000337910   -9.53184865396420  -21.54547373259196
C       -15.42470011410560  -11.87988131002741  -18.94064424138431
C       -11.24900393805275  -12.04219455863706  -23.71013089744821
C        -8.89159292740207  -12.47124623258134  -24.15571424699216
C       -15.33156688931005  -10.90163076082264  -23.08994387934441
H       -16.28374962206394  -11.23760711601043  -23.49708764157063
H       -15.24995904076262   -9.82919927312607  -23.24972330690064
H       -15.32993213275590  -11.08375682728010  -22.01306543454823
C       -16.63998808484895   -9.04435807821192  -20.62385591209168
C       -14.99840384116998   -6.16542937408020  -22.46882567803030
H       -15.89779277170967   -5.55886374489598  -22.55290125645133
H       -14.75458828599313   -6.54163379521709  -23.46396166989712
H       -14.17762969273709   -5.53383676342990  -22.13631757093806
C       -10.74465818020011  -14.24340712215951  -20.26374860529746
H       -11.29969744526253  -14.42679934055000  -19.33470829934553
C       -14.36900810469994   -8.82826444804344  -19.83657321605798
C       -16.75068865068423  -10.21964316188038  -17.76820392611766
H       -17.08571405443153   -9.19491075166111  -17.68015549560344
C       -16.42911504008229   -7.97507930306497  -21.47973743903919
H       -17.23213844860725   -7.65095494120910  -22.12798581311564
C        -7.17675054490956  -12.35084766302074  -22.47265384381272
H        -6.13962516199080  -12.35148341015435  -22.17099102211542
C       -14.19209901392902   -7.75326301711895  -20.69678928829307
H       -13.23540254084261   -7.24828302375784  -20.71578878227722
C        -8.18073648207314  -12.25983494267651  -21.50606094777508
H        -7.86335197994336  -12.23855401160552  -20.47795756020420
C       -15.60380057258882   -9.47712323864465  -19.78893789394806
C       -12.31177959236559   -9.49669177055214  -23.10836677094463
H       -13.15052637771149   -8.98027702404053  -22.62546258648241
C       -15.89189400981307  -10.55035084558054  -18.80668304987372
C       -16.24162459556071  -15.12033066843718  -18.99846142721288
C       -12.26275281326329   -9.10876528866769  -24.58024887293958
H       -12.03570662025420   -8.04640007244616  -24.66428915781098
H       -13.21568307022046   -9.28519036228783  -25.07345423824631
H       -11.48731602373262   -9.66183681457012  -25.10786001980928
C        -9.71893941602816  -11.86808720595323  -18.89666953485734
H        -8.80379775331693  -12.45959299303808  -18.80047469813321
C       -14.44788757211309  -13.15812871795205  -23.69118511236594
H       -15.35331507758150  -13.40250511960303  -24.24528142675490
H       -14.58740269490194  -13.46585622067416  -22.65559372591843
H       -13.62071669901320  -13.73005676011849  -24.10915391422610
C        -9.19445400628640  -12.67882609708226  -25.51678584249225
H        -8.38114603865217  -12.87645596102715  -26.20007643099767
C        -9.40240223019953  -14.95937372486214  -20.20006979674517
H        -9.57162464710363  -16.03256745369336  -20.11853515230955
H        -8.81926177224195  -14.64770391491133  -19.33632110879179
H        -8.81731226476344  -14.77750159320397  -21.09985187417770
C       -15.93254089891994  -12.84570988845559  -18.02924550925546
C       -11.59437221003155  -14.75984395112422  -21.42206742181765
H       -11.86577178545366  -15.80364692668154  -21.27121991135738
H       -11.05728882435033  -14.67438772976828  -22.36647183566832
H       -12.51412533037403  -14.16933441973207  -21.48788752022642
C       -10.48335759442061  -12.63005947208728  -25.95198577103187
H       -10.73346952535995  -12.81231571186259  -26.98681124828677
C       -14.33361201023288  -18.36949010508384  -18.55032502792768
H       -14.72146407941746  -18.95013725312134  -17.71232450548491
H       -13.24871314231495  -18.45842952860140  -18.54396840744800
H       -14.71735921349570  -18.80454339962912  -19.47038353917889
C       -16.75963862578080  -12.47681041499426  -16.98690548196300
H       -17.10572532938139  -13.23381945306297  -16.29563903015195
C       -11.48616649683781  -12.26968658194232  -25.04898539918189
H       -12.47890284213898  -12.15253412051063  -25.44754460898198
C       -14.06007355473597  -16.07550710133907  -17.57680892329076
H       -13.20935142761679  -16.44832983491817  -17.02203400130260
C       -15.84278325163283  -16.44308477035002  -19.11933435994283
H       -16.39381411835609  -17.10283842917970  -19.77592472463227
C       -13.22880649321821   -9.30542470267570  -18.99888569910937
H       -12.44507438917522   -8.55407407985658  -18.93214819661942
H       -12.81469988226097  -10.23066360578800  -19.48297810832848
H       -13.55887644424988   -9.57987445185812  -17.99888405987769
C       -13.68869044563511  -13.82845049125259  -16.51780053051617
H       -12.79829441129590  -14.31020735709180  -16.12070875764053
H       -14.32077095392268  -13.52594521738403  -15.68314236630379
H       -13.39785326261611  -12.92726091638838  -17.05473195675994
C       -10.58119320556289  -12.12581335308042  -17.66516738156091
H       -10.12909960611336  -11.67395787519934  -16.78343874367672
H       -10.69569718344053  -13.19153488739614  -17.48158348150454
H       -11.57195232362739  -11.69281536355333  -17.80576624300684
C       -17.41408130738786  -14.59763905515471  -19.77571209819532
H       -18.12810184334758  -14.11351736030876  -19.11055035185742
H       -17.91635036200043  -15.40279356661822  -20.30681814761567
H       -17.08915100851396  -13.85358648136710  -20.50380575539416
C       -17.16470743861453  -11.15930871084178  -16.84165694025647
H       -17.81221176962163  -10.87375368211284  -16.02543996790572
C       -11.02646975165942   -9.08810006240455  -22.39383321087778
H       -10.92008663089196   -8.00422673462204  -22.38341024721472
H       -10.15479118279131   -9.51151079048184  -22.89180219198343
H       -11.04341413857747   -9.44560244956102  -21.36388636697594
C       -14.75074140381546  -16.93455167837623  -18.42009932780169
C        -9.37405840182618  -10.38405026568567  -18.99433039096133
H        -8.77398673392069  -10.07565897431723  -18.13883353706014
H       -10.28791042658613   -9.79336368069785  -18.99617802862113
H        -8.81821128759660  -10.16022270011516  -19.90356742292786
H       -14.64633744791422  -13.34799335162401  -20.16356873297181

