74
CSD_code = RIYQOI | q = 0 | S = 0 | Stoichiometry = C28H43ClNRh | MND = 6
Rh        9.02322329342874    8.19415228371005    8.87715977199551
Cl       10.03355790992829    9.18536517493627   10.69972052895411
N         8.93336247390596    5.89860294283531   10.76891276294976
C         9.85739383911710    5.23121324842100   11.72149028395140
C        11.07069870627381    4.95390745342769   10.82582638298223
H        11.02987761920253    3.93379843774809   10.43734141906109
H        12.00394668806537    5.06819658837114   11.37278066438031
C        10.96482985705338    5.97547554821172    9.67226884349700
C         9.54404412770640    6.52747264400608    9.78641792481955
C        10.22676117795231    6.22973176175572   12.82462268362093
H        10.49895798444764    7.19192298871909   12.39643808708809
H        11.07188306646317    5.84893029508120   13.39407659695947
H         9.39461245273152    6.37275085482038   13.50781858038476
C         9.27468955395249    3.98199741655399   12.36877981724580
H         8.29445776771279    4.19231520717859   12.79228161552018
H         9.93378169900717    3.66206367599590   13.17263824577736
H         9.18442147397971    3.16301723893655   11.66319871966013
C        12.07119185331619    7.02997454316739    9.73466840012201
H        11.89682426834893    7.79462444937285    8.97589208897122
H        13.03512284283246    6.55962899492339    9.54595126720795
H        12.09845591318725    7.51937834119900   10.70295213864869
C        11.08546021298219    5.27318976327431    8.30959287065753
H        10.27850715902830    4.56143139396830    8.14996843477925
H        12.03250853245282    4.73828199208893    8.26132597115094
H        11.06402926440420    6.00948204145001    7.50932727529252
C         7.51007577977326    5.77095092062974   10.86706969573494
C         6.90382756729988    4.68461230332045   10.20879944332113
C         5.52500870507097    4.54013133844911   10.27750930770862
H         5.05231717324157    3.71577869239095    9.76674987693594
C         4.74628210179785    5.42968400035084   10.98949496946394
H         3.67554966605894    5.29725306175004   11.03780354833807
C         5.34884498533605    6.48903801125305   11.63193317719968
H         4.73986204545509    7.18796146191850   12.18355039811705
C         6.72532569235986    6.68410739788564   11.57939303855945
C         7.67619366684444    3.64984156860004    9.41814428307409
H         8.74453092367333    3.82244280071972    9.55857115367436
C         7.34535213112876    2.22745054786804    9.88907222454246
H         7.33535809661989    2.15957200417926   10.97416917549418
H         8.08305432165759    1.52662005235382    9.50255872021251
H         6.36962274459353    1.91632694482139    9.52506262181376
C         7.37811429874752    3.76304722836178    7.92054359632450
H         6.31348214825601    3.65449371312808    7.72837285404832
H         7.90551156018145    2.98073616607739    7.37754249962695
H         7.69766187995059    4.72616637252838    7.53475853703730
C         7.28953871108746    7.90640746095896   12.25668533180838
H         8.37166753179852    7.92027840926818   12.13966889368788
C         6.95523965060759    7.93260999263534   13.74930442337337
H         5.89031322937733    8.07940118131618   13.91550666972225
H         7.48931680964923    8.74941167953944   14.22862315890559
H         7.24580529607501    7.00037696723535   14.23138301548444
C         6.75927332053630    9.15637311758978   11.55247869517689
H         7.03507222505206    9.10443903842274   10.49650482887206
H         7.21811303302462   10.04206048284236   11.98444741180707
H         5.67754205379649    9.24148521861146   11.63426167233254
C         7.33514907640156    7.57195997942850    7.77621622219193
H         6.90808242560557    6.67817938705162    8.23019873187690
C         8.46560800480552    7.42437665928315    6.96938064160627
H         8.85785274084653    6.41886450895043    6.84016078963030
C         8.78767350736988    8.35565350950786    5.81895931347904
H         9.28887279888387    7.79038462302246    5.02968587537451
H         7.85794650283221    8.73947277382789    5.39579776958873
C         9.70204742706607    9.51595918713096    6.25273889813537
H         9.55021592518963   10.38187861661562    5.59818794414730
H        10.74514573623826    9.20721166359347    6.13957838920554
C         9.48913796364736    9.94016747316518    7.68761117901985
H        10.36832903896658   10.39576371954234    8.14631169539714
C         8.26592708327395   10.17549900848105    8.27547806378295
H         8.25434115542369   10.79506664413467    9.17015883047865
C         6.94778466352047   10.08811246338537    7.54068493129488
H         6.25148134433315   10.80922062723714    7.97403758952898
H         7.10206403470132   10.37628655771779    6.49898495014496
C         6.32038611414987    8.68220983322606    7.62248405644920
H         5.71578702042667    8.48993624468360    6.72822628739864
H         5.64371034978458    8.63963310486272    8.47960324319174

