71
CSD_code = RIYROI | q = 1 | S = 0 | Stoichiometry = C20H45ClN2P2Re(1+) | MND = 5
Re       -0.61397687697026    3.08234296293349    8.31088724989524
Cl        0.25721251521765    3.74846235237887   10.32826280525245
P        -2.89546734325351    3.77496368213525    8.82723182538019
N        -1.70316917741216    1.65271589469073    6.98626377063831
C        -2.95329855417670    2.23567253014623    6.46790016371479
H        -3.49328118047744    1.49955764135701    5.85701789931244
H        -2.67505098421448    3.07879038053399    5.83082690960636
P         1.25655140300362    1.62116279074348    7.75050843663803
N        -0.21356812562590    4.38673375952547    7.25289803550203
C        -3.84423152527705    2.70075627228366    7.62181417113785
H        -4.21789986266096    1.82504246158029    8.15932593894041
H        -4.70902719653233    3.24070208830802    7.23465827003610
C        -3.58376731436392    3.24258008539621   10.50041610383452
C        -2.92919449904374    1.88786584370949   10.80054506010754
H        -3.15456283360912    1.13943632104480   10.03725036642170
H        -3.30042743225683    1.50095596717577   11.74775532547866
H        -1.84935897403478    2.00324875683039   10.90119067418700
C        -5.10441731434599    3.09528585011167   10.52641895448699
H        -5.60730703976834    4.02514222969705   10.28359806387522
H        -5.40588849729907    2.81053642703583   11.53343353744784
H        -5.46139444397747    2.32255840978255    9.84909534600055
C        -3.12776321961305    4.24161484411747   11.56355042397863
H        -2.05872482216468    4.43562373407483   11.48071888843265
H        -3.31922548020332    3.83274957302024   12.55431287933197
H        -3.66793107770559    5.18103739173955   11.48419189825560
C        -3.29014695389628    5.55514628363186    8.35142308495465
C        -3.07136277711791    5.66581143581138    6.84160017451914
H        -2.08262607530062    5.27906977670828    6.58135245680455
H        -3.09720578271254    6.71419021355735    6.55523064992581
H        -3.84097805557621    5.14894807747902    6.27345857279339
C        -2.25617894818887    6.44212237642739    9.04700771974747
H        -1.24873774593453    6.09840319296475    8.80055871926714
H        -2.37285930995353    6.44246404983118   10.12608785613373
H        -2.36103837836080    7.46637137310323    8.69801129702409
C        -4.71215096792071    5.98132906370139    8.70224239481189
H        -4.89461541757821    6.96751138236825    8.27954619256030
H        -4.85812877445756    6.05649206165190    9.77626253998677
H        -5.45363364088391    5.30181465897634    8.28499089984532
C        -0.83233305128517    1.11118283450544    5.92851572084060
H        -0.55791631501884    1.94628274996746    5.27961967094726
H        -1.37601777777890    0.36786564150293    5.32968301307390
C         0.41470170268198    0.46783805782656    6.53907038002737
H         1.10963315272300    0.17370154184790    5.75161718116554
H         0.12208131484443   -0.43969785550650    7.07442744528389
C         2.63488264169429    2.46703395239367    6.78226882635546
C         3.09086575586548    3.66805962202302    7.61248799057755
H         3.78782897864320    4.26811217627294    7.03283452888714
H         3.58842274199812    3.36993437507379    8.52974469010650
H         2.22978530166259    4.29194911613111    7.86391782372968
C         2.00736978452509    2.99408548090885    5.49067853112366
H         2.71624719128865    3.65235903393184    4.99470779021562
H         1.11898824804461    3.58623013580835    5.72510344453513
H         1.75787539654570    2.19469584098158    4.79710672163644
C         3.80472380921129    1.54617725612411    6.44993636687651
H         3.47719588840345    0.64485468800774    5.93418635089750
H         4.36573502165065    1.26804657112113    7.33778438417953
H         4.48674161943193    2.07503208537870    5.78684047768944
C         1.86046291085078    0.44957742744685    9.09966743021722
C         2.50294435188717   -0.82987172042583    8.56546132721590
H         1.80477072688887   -1.44282497742875    7.99970533752984
H         2.84541559907972   -1.42308301840711    9.41209847936963
H         3.36444634886788   -0.62233548130179    7.93996073098788
C         2.83823419777867    1.19828307021123   10.00512543824285
H         3.79672994387538    1.35034640122284    9.51652326223495
H         3.01622858561432    0.61739917206743   10.90863532103150
H         2.43028903165394    2.16417631235221   10.30154505444739
C         0.61639102835767    0.09598060193384    9.92484438730332
H        -0.16345236710914   -0.37360350048875    9.32077566900421
H         0.22200150342919    0.98712390658841   10.41436922156370
H         0.88311498765906   -0.61033812030215   10.70888231783607
H        -1.96145556940416    0.87111442579891    7.60062912862941

