71
CSD_code = RIYRUO | q = 1 | S = 0 | Stoichiometry = C20H45ClN2P2Re(1+) | MND = 5
Re        0.13784136082264    8.89570188847954    2.98805874979310
Cl       -1.62813520181713    9.95842580816406    1.97480745962896
P        -1.16883096298214    6.96865806398223    3.71559698019780
N         1.36542912339389    8.32091821174699    4.76195776591518
C         1.33703938776763    6.86752581817774    5.00180125389670
H         1.89971032121202    6.61991189237995    5.91217137079011
H         1.82851549610405    6.39188893957707    4.14971198225389
P         1.53811990427471   10.88905658987520    3.11937257928056
N         0.95296817440833    8.13373016869003    1.67034428607472
C        -0.10551712867489    6.37533954291240    5.13817960099219
H        -0.52842808300937    6.76297458929894    6.06912576772369
H        -0.12693993943525    5.28652046054774    5.19734077263176
C        -1.20938883131174    5.54949197606043    2.47575182490735
C         0.24056551666318    5.11482968876212    2.25571084788169
H         0.28213729082722    4.43291408200903    1.41010090944464
H         0.65147215661113    4.59642832792258    3.11866531405983
H         0.85408005848216    5.98434518114093    2.00598697344701
C        -2.04216935030338    4.35745586046939    2.93649715837434
H        -3.10275165391011    4.59141747133377    2.96456068139360
H        -1.72722604904243    3.99676700824143    3.91442712937908
H        -1.90743444358689    3.54352865663895    2.22664483080799
C        -1.73825472436301    6.12160261882759    1.15944248871460
H        -1.64441737408739    5.37557668621726    0.37429360547924
H        -1.14826620396200    6.99536774465300    0.87239026955056
H        -2.78278436030003    6.40882188513322    1.22510046610965
C        -2.63806104339857    8.65773284819769    5.28176335883801
H        -2.44648361272796    9.46051200724514    4.56888068219634
H        -1.83393741276468    8.61493892587306    6.02008800437655
H        -3.55081805096043    8.91354853109769    5.81672312793884
C        -2.82496421549625    7.32542507975391    4.54442257023384
C        -3.26519793941093    6.24808282405698    5.53462341229648
H        -3.36577673492854    5.27703251746056    5.06192738836100
H        -4.24069355672481    6.52374457535424    5.93262763980820
H        -2.58460212632506    6.15300115083326    6.37786520932294
C        -3.88733756908084    7.52141418791774    3.46301456674030
H        -3.53291862009996    8.20318008963280    2.69045249450603
H        -4.78345608061132    7.95279906416424    3.90607331429678
H        -4.16763915918102    6.57707614406678    3.00451510917002
C         2.73061827696944    8.86955786160343    4.68159716698986
H         3.21618985296267    8.39888292486182    3.82324748587014
H         3.29816559225898    8.61490530639941    5.58695320676557
H         0.90027664854139    8.77231876151603    5.55879918620135
C         2.68680723544000   10.38968648378185    4.51161322598569
H         3.69030985246933   10.77622588678158    4.33003901479210
H         2.32348856174394   10.84203860823263    5.43841681870124
C         0.72352869096995   12.45519229262185    3.78332052619664
C         1.69716798683856   13.42688759606084    4.44840291373938
H         2.45493344954264   13.77954329097916    3.75713886086189
H         2.19402560476158   12.99483676488053    5.31424800108020
H         1.13647953758534   14.29450675381305    4.79327488513754
C        -0.30927971580988   11.97541532665627    4.81145286773674
H        -1.07446703251974   11.36910323789600    4.32519134045195
H        -0.81297327689173   12.83234122879176    5.25496544373007
H         0.14813141792991   11.41312736011002    5.62871017731864
C        -0.02131497737526   13.14697929148215    2.64184521057590
H         0.66661665338542   13.62921581924172    1.95277562810297
H        -0.67678948839425   13.91610750013759    3.04708892280416
H        -0.63719663727544   12.43536974658145    2.09265265223251
C         2.64047471384321   11.16051479201982    1.61522538264870
C         3.49395137369968   12.42169203743380    1.70285556604985
H         4.19028405531306   12.43014364950316    0.86646647012887
H         4.08009856790407   12.45158965809627    2.61999675733819
H         2.89118499016857   13.32290076387216    1.63256306419005
C         3.54142114036783    9.92965680798153    1.50156811413591
H         2.93278652651492    9.02194876550957    1.52479293135713
H         4.29797162194718    9.89773479336493    2.28184332869660
H         4.05516236975523    9.95323657847484    0.54382297019967
C         1.72429173471578   11.19273050713786    0.39082411638246
H         2.32624662607356   11.21332591380870   -0.51418594298800
H         1.07762580360345   12.06436415124589    0.38282440517579
H         1.10483388015801   10.29293243273600    0.36895135430610

