102
CSD_code = RIYTUQ | q = 0 | S = 0 | Stoichiometry = C40H57NOP2Ru | MND = 5
Ru        3.24103655222499    1.00432192006357    1.27061861169861
H         2.23297722549465    1.82878877022845    2.08814629223232
P         2.40216386953602    2.23496915894816   -0.45366735383658
P         3.47376002599006   -0.10806652051748    3.24685419034171
C         1.33847622619282    0.07794358651094   -1.61697497058737
C         0.92263790290398   -0.17058329037480   -2.91771112969081
H         0.17837821555187    0.48272461648974   -3.35436078335606
C         1.42363259539211   -1.22202181080351   -3.66136173397565
H         1.07599824786784   -1.39837035082637   -4.66776536638674
C         2.40885355269721   -2.01409226976389   -3.10182263396845
H         2.86805585230383   -2.80686084359343   -3.67539109998206
C         3.37997706102940   -4.33524040153905    0.58215604930343
H         3.81163126601760   -5.09056068580689   -0.05931763749397
C         2.88040944008119   -4.67186187900857    1.82663575908405
H         2.88305180128392   -5.69631933293128    2.16612688037070
C         2.42139770890716   -3.65958146858498    2.64783400545078
H         2.07075341086553   -3.89982325728557    3.64318845430521
C         2.39067661052282   -2.33341468247851    2.23892365123959
N         2.57806132169459   -0.72142798246736    0.37094310746199
C         3.90379700932697   -2.61108069888710   -1.17173441738881
H         4.79280511967414   -1.97981370158780   -1.00936158723110
H         4.19225525954544   -3.46421181275008   -1.78591851877370
C         0.87693588524922    1.33161294103023   -0.94841523223856
H         0.35288298047141    1.12468777648307   -0.00425143341877
H         0.23748612424389    1.92081185879125   -1.61130374295445
C         2.05679353365937   -1.28361291475342    3.24856234387399
H         1.87949339365486   -1.72556624654458    4.23278131435316
H         1.18963797546335   -0.67920173691562    2.94482392233031
C         2.25904390876612   -0.78983984341528   -0.99305218850598
C         2.82255414785344   -1.79706378087379   -1.80330601205974
C         2.77703934691160   -1.99300546375893    0.92551842911746
C         3.33964143021870   -3.02622283111302    0.14754516587387
C         3.42498830901224    2.53970034364319   -1.97732789703043
H         3.97866076970599    3.45934150226002   -1.72970513181589
C         2.66812063069271    2.76512448018899   -3.28269867957836
H         1.92137588413537    3.55483665166313   -3.16807533200341
H         2.15519326767337    1.84639882334308   -3.57022536281002
C         3.65952479064440    3.14629910227568   -4.38121230096832
H         3.12617611894167    3.29815165071835   -5.32218352680271
H         4.15099679035027    4.08699767346168   -4.11950080728675
C         4.71279067226543    2.05484115208281   -4.55391243809274
H         5.42258114483791    2.34408623598248   -5.33170142797567
H         4.22347825287908    1.13079681789688   -4.87144238595970
C         5.45169456535275    1.80348517810280   -3.24152148692169
H         5.99209861611293    2.70618739075882   -2.94542008269443
H         6.18315053296728    1.00354064468474   -3.37449651601733
C         4.45409503745765    1.42303262727248   -2.15322969263928
H         3.95107826007666    0.49861235453029   -2.44448005326386
H         4.97032103985064    1.24824358349136   -1.19499272965632
C         1.77180891465522    3.95861098167032   -0.13626341437545
H         1.56277799663848    4.41267591277317   -1.11521825676929
C         0.49360459015380    3.95859687885990    0.70012010394740
H        -0.30564624924526    3.42879379760962    0.17893323235215
H         0.69427436390261    3.43461375092961    1.63991685215031
C         0.03207391969236    5.38471933386773    0.99295232017332
H        -0.22185641555634    5.88210998931773    0.05309743995285
H        -0.86935138860524    5.35669235794017    1.60880012195112
C         1.12448992296397    6.17700553454175    1.70155641196870
H         1.34352736139947    5.71063222360387    2.66422587163615
H         0.78389187303743    7.19722801343003    1.88978572191358
C         2.38987146687737    6.19280618129461    0.85180734883611
H         3.17982179764944    6.74404629478379    1.36528981093995
H         2.18693450939429    6.70079966765554   -0.09462372383556
C         2.85456357804510    4.76576687849965    0.57952744130522
H         3.77364848384725    4.78237486320503   -0.01133254006584
H         3.08011030091740    4.26667601007438    1.52684282048374
C         5.02545138133185   -1.05713736773459    3.64014794900841
H         5.66297709615729   -0.30613659107115    4.13314861523442
C         4.87986613955267   -2.25624459165036    4.57219930588202
H         4.36823616125994   -1.97132537975448    5.49501019627633
H         4.29251868572815   -3.03225258872144    4.07962824344406
C         6.26476957131157   -2.81295664969170    4.89898573846923
H         6.84807853041313   -2.05502778860896    5.42839101492449
H         6.16737207802766   -3.67964598423942    5.55649147264422
C         6.99552870298230   -3.21340184596505    3.61990276017058
H         6.43801205656042   -4.01102121615176    3.12280066517860
H         7.98770655315657   -3.59835617315734    3.86446405273246
C         7.11754616095984   -2.02295117889731    2.67149756065122
H         7.62011288305395   -2.33064068040487    1.75203133553455
H         7.72228400938185   -1.24158723439104    3.13881661204988
C         5.73116010759409   -1.47576873527142    2.35063361822527
H         5.80084372952077   -0.60782070686989    1.67502717969610
H         5.15346944084228   -2.25487477859563    1.84920469875501
C         3.25300074980831    0.81057103589315    4.85199356973471
H         3.55519336710147    0.12754010721394    5.65853736438335
C         1.80709859656199    1.24614391562017    5.08014138240233
H         1.14731215458821    0.37794247287628    5.12594332713005
H         1.49438621098797    1.86829649388525    4.23586513402066
C         1.67638873726349    2.03696879029550    6.38036108820208
H         0.63953965828525    2.35344414549600    6.51211916198416
H         1.93730669081895    1.39129398610723    7.22312114035329
C         2.59646350813340    3.25233201097883    6.37506632774725
H         2.50220085719385    3.79635323609758    7.31711703754371
H         2.30388093893632    3.92448512016685    5.56586038707533
C         4.04047890958304    2.81191222125749    6.16401256347665
H         4.35423853777815    2.17833094617168    6.99774339117438
H         4.69837009864293    3.68261078939833    6.13879732359440
C         4.16416314767828    2.03778642246563    4.85570879808020
H         3.87114644442853    2.68101791330152    4.02050509505715
H         5.20454666390788    1.74386627701035    4.69592994579777
C         4.64158923474288    2.15211203452465    1.58539573291828
O         5.63959749540314    2.73769986796102    1.65656616418067

