67
CSD_code = RIYWOL | q = 0 | S = 0 | Stoichiometry = C30H28N4O2OsS2 | MND = 6
Os       -1.11739029105190    4.36067068390874    2.08571720535735
S         0.30710753580020    4.27432536179846    0.29603226341968
O         0.31241314418678    2.96354066532772   -0.34774941518461
N        -2.17339982411338    2.77637099702045    1.27741647660658
N         0.74862423795427    6.45748756825516    3.45656829316275
C         0.00365219228784    5.75345788832453    2.92544610194243
C         0.06407857967607    5.51808376233547   -1.01482359397735
C         2.05460659366931    4.67385288208077    0.65513326259976
C        -3.20016586434406    2.80428945788699    0.45117585217966
C        -3.83015666449757    1.65701108381444   -0.01559267931524
C        -3.39041242856995    0.41007416346016    0.39439760904794
C        -4.10116089734319   -0.79883576593317   -0.04699595767179
C        -4.59679110423054   -1.71436644978817    0.87836281619826
C        -5.29123362367500   -2.83112280814357    0.45101605996195
C        -5.49515277320369   -3.04983203237056   -0.90136754371944
C        -5.01080482191434   -2.14037901386040   -1.82692443615299
C        -4.32401222658424   -1.01760708155107   -1.40370616978613
C        -1.66226966270919   -0.85538544776392    1.68307302059222
C        -2.26033261755599    0.35806589508070    1.24395947109263
C        -1.68816406376383    1.58050126699372    1.65510596596053
H         0.21939148657736    6.49091684204224   -0.56376598260061
H         0.75722700257080    5.32898919139774   -1.82610455510989
H        -0.96026492428743    5.43848920189794   -1.36203476560247
H         2.44415360584059    3.89896760533645    1.30665938888775
H         2.61418221688506    4.69538925269513   -0.27226038795413
H         2.07300581260473    5.63162417221429    1.16219694309012
H        -3.54810332192009    3.78527406959086    0.15598531490066
H        -4.68039602341968    1.74447651163556   -0.67452793721134
H        -4.45693787065363   -1.53386364473620    1.93474020282140
H        -5.67626552907929   -3.53237611167594    1.17669558775822
H        -6.03408024496493   -3.92480133103919   -1.23274482335043
H        -5.17051110583111   -2.30540784586946   -2.88220116042386
H        -3.93821897399804   -0.31154096625257   -2.12474358137166
H        -2.08911858953387   -1.78843817825096    1.34767187664781
S        -2.54206326088595    4.26383581482476    3.87456098031861
O        -2.54654402442900    2.94967040189726    4.51162819899829
C        -2.30016555189966    5.50076231269259    5.19205511029921
H        -2.45153064779780    6.47609101731986    4.74504007234406
H        -2.99636396512841    5.30972068131022    6.00025740093830
H        -1.27716150033501    5.41683309958921    5.54219368475998
C        -4.28970560247437    4.66371969568838    3.51707328007246
H        -4.67728548784683    3.89398832181512    2.85828809299065
H        -4.85022511616070    4.67610094831354    4.44406885780993
H        -4.30922259883415    5.62580866917911    3.01831710632438
C        -0.57653459914670   -0.85537448736644    2.49407773349588
C         0.02445756662545    0.35804651444151    2.92926499468411
C         1.15541750615686    0.41005842070491    3.77765019636744
C         1.59821358087837    1.65722945878844    4.18365000817702
C         0.96990267136436    2.80449566541788    3.71463552154376
N        -0.05787749933020    2.77644021598346    2.88964166757166
C        -2.24154214198908    5.75324134374663    1.24972058128396
N        -2.98853440255890    6.45726668816135    0.72141599515521
C        -0.54556067071643    1.58052176054015    2.51523695728426
H         1.31965585478151    3.78556445538684    4.00741300478388
H         2.44936592979558    1.74477549336125    4.84139430407093
C         1.86413293987659   -0.79902039170759    4.22180111325331
C         2.35643871064756   -1.71858506650156    3.29866643700896
C         3.04916343653107   -2.83542641257145    3.72856901794751
C         3.25469811240405   -3.05019133289907    5.08133845399028
C         2.77365565242474   -2.13674280298094    6.00468260525799
C         2.08856638464007   -1.01391339704279    5.57887719509726
H         1.70532268276452   -0.30473703060280    6.29821784526850
H         2.93463105295344   -2.29868919129684    7.06024359311012
H         3.79231318779713   -3.92520473980657    5.41472105142238
H         3.43161026681924   -3.53982854800257    3.00457487971512
H         2.21542727494133   -1.54119713161184    2.24191584500161
H        -0.15185470267152   -1.78836229263895    2.83239749084881

