61
CSD_code = RIYYOP | q = 0 | S = 0 | Stoichiometry = C22H35ClP2Pd | MND = 4
Pd        6.80690748396191   11.01283561172904    8.75853915386405
P         5.08508259974033   10.41840748874538   10.08375800250042
P         8.56006767321415   11.58806642128943    7.46315507166317
Cl        8.07689359815782    9.23684642533443    9.45681155460873
C         5.74721678196004   12.54223462634986    8.15249789398709
C         3.15046929826203   16.75369405298125    6.57375878924988
C         4.44863267942452   14.62094680386553    7.37014888491340
C         3.69880405197453    9.80123805610025    9.03512762560651
H         3.06372783695880    9.10777883236898    9.59249269079593
H         3.09749665320520   10.66023237800908    8.72549610705766
C         3.84567994775397   15.60841025627615    7.00341119311381
C         9.94915661424127   12.05857764958901    8.57756746204060
H        10.45425587555127   11.14001939771409    8.88764154618712
H        10.66694024085673   12.70358375409075    8.06370372837510
C         1.78190077373493   19.02124594207653    5.72006099257749
H         1.25123275945084   19.90167879615267    5.38816405138882
C         9.18822011474085   10.20280644270323    6.43443818638748
H         9.96376103917606   10.53976166090959    5.74319508881436
H         9.61880340087143    9.46983345672955    7.12171150327474
C         5.36697637878384    9.06045536613795   11.29829647408594
H         5.54815142805036    8.16408966406656   10.69599036611529
H         6.30778516923412    9.28182189031919   11.81145425239306
C         2.60207491831337   19.08356261310006    6.83588353904495
H         2.71014605543193   20.01469302396162    7.37419934409085
C         8.40310899470468   13.02279580469752    6.31039734303442
H         7.47056863901265   12.88674330193133    5.75498573585465
H         8.25763565108877   13.89860592812441    6.95098644470608
C         5.13042406414837   13.52539834037128    7.78424754931545
C         3.28331303594396   17.96189710208200    7.26411375783471
H         3.92411103863702   18.00668146266878    8.13359614549898
C         2.32106516321859   16.69807684370928    5.45000113813054
H         2.21700436677379   15.76446036817513    4.91511677061713
C         1.64469174950676   17.82620241056864    5.03110676527355
H         1.00554473824727   17.77596272033606    4.16081672027149
C         4.36944755224239   11.80359967467896   11.05913252347215
H         3.89668482324027   12.48154084172574   10.34316972682084
H         3.61142469183094   11.44852835739460   11.76010377670984
C         4.25279874079730    8.81586055728966   12.30654288446764
H         4.19131383767152    9.62586340798022   13.02953277361921
H         4.45133636000350    7.89566503293729   12.85285938857926
H         3.28547079777766    8.71533987684982   11.81765886496383
C         7.99553514004990    9.58662123942845    5.70865572009656
H         7.24052050297245    9.29694841097296    6.45101327962655
H         8.28829994657538    8.69889676337182    5.15158106206591
H         7.54589740137602   10.29959000858460    5.01736770060647
C         4.31139488674039    9.12121711313306    7.81103372417144
H         4.90837494697379    9.85634833911518    7.24783591145280
H         3.54164505766760    8.72350851510961    7.15186562059888
H         4.96377779289045    8.30016773694493    8.11700195257883
C         9.56416546100687   13.24879513369802    5.35176406658189
H        10.51782807038452   13.26259093570120    5.87587621718640
H         9.44268235568668   14.20602786227645    4.84822964625373
H         9.60085451575628   12.47417890448634    4.58964313627371
C         5.51274955435609   12.52231165175495   11.76862039065726
H         5.97623055880614   11.87678319676425   12.51395008791614
H         5.16360814281839   13.42655241680689   12.26282947024829
H         6.27276734834846   12.80225351707532   11.02730001660061
C         9.34729994042728   12.75850508204692    9.79616617358179
H         8.78991340423899   13.64838691340846    9.49421107419490
H        10.12122558892580   13.05576627578015   10.50179254916691
H         8.65890176602614   12.06670734174942   10.30829038855813

