69
CSD_code = RIYYOQ | q = 0 | S = 0 | Stoichiometry = C32H20Cl8N4O4Zr | MND = 8
C         6.51583012782681   13.15563907668301   -0.10390881562244
C         6.31858479589870   14.46284310387920   -0.62940348649024
C         7.22536904751632   15.48577307469031   -0.50180545142099
H         7.01249611463674   16.46150964234619   -0.90937328015615
C         8.42442514381233   15.24305909797255    0.16549171734805
C         8.68764008142499   13.99840928004302    0.68827543112363
H         9.61575036810429   13.81912188895919    1.20955672858416
C         7.75512864571596   12.96091057636800    0.57375672862280
C         8.05017891496418   11.69113480658110    1.17684899455519
H         9.08203884309835   11.57280619404691    1.54005549962158
C         7.64957139612524    9.54083201409622    1.96105573043023
H         8.66819812803347    9.64143872080614    2.37025415012528
H         7.63791366574675    8.73519373455108    1.21805467158095
C         6.67758159632583    9.18014642435654    3.09633867513737
H         6.98610935629096    8.22304946099998    3.54825423854865
H         6.70787496881346    9.96768577273980    3.85678662986783
C         4.69199993364912    8.03656720513213    2.70077448999795
H         5.14158540633399    7.17640504691580    3.21867120232690
C         3.36238794350272    7.83025824979377    2.19804845168471
C         2.84346823658132    6.53132521691772    2.16242084409684
H         3.44514224928965    5.71162940132560    2.52487051762329
C         1.59140851871463    6.28903326448281    1.64712556902644
C         0.80942123726634    7.34261901255054    1.17850719562210
H        -0.17461507986597    7.15774190291166    0.77727136763293
C         1.31028087695724    8.62018778847292    1.23426351084292
C         2.60712377107413    8.94314368605549    1.72228464853549
C         5.64048311095869   13.16212878890099    2.86039964586330
C         6.79707425787916   13.51448050186044    3.61028977301140
C         7.24553010510959   14.80325873289015    3.76574380039128
H         8.14296165307941   15.00606280730466    4.32881946488042
C         6.52471278094043   15.84442381419409    3.18487469142044
C         5.37797636290222   15.58026984463737    2.47271243278534
H         4.82242027923033   16.39066895167018    2.02560527157503
C         4.93388060922005   14.26530975025032    2.29546451712252
C         3.75680663658007   14.02675293335040    1.50753319963559
H         3.16182872402262   14.91903158402136    1.26213347844779
C         2.21072151931699   12.78825464236636    0.28973442589997
H         1.75653437219048   13.77666188513406    0.11009643553129
H         1.49307406706300   12.14814342767999    0.81391655674453
C         2.56785264537793   12.14223681055184   -1.05894282776247
H         1.65165754883294   12.01972035776286   -1.65953170469823
H         3.26251198608798   12.80122088819058   -1.59219892048966
C         2.78692001767437    9.85940091057955   -1.43270367442544
H         1.92282502296304    9.94234760346566   -2.10879076375134
C         3.32722697910890    8.53632871433540   -1.28889772366471
C         2.61288996832305    7.45230426397016   -1.81195721633561
H         1.68249984567136    7.63289270121568   -2.32891184582830
C         3.07084056397129    6.16496752846129   -1.65428859999482
C         4.26619918935792    5.92174460356595   -0.98067673209173
H         4.62670475337385    4.91349045761808   -0.85029690827102
C         4.97573830433469    6.98683412148004   -0.48364647618778
C         4.55840834996367    8.34211585124567   -0.59649612933757
Cl        4.82629491481379   14.76098245228307   -1.42412861159611
Cl        9.56445018962039   16.52393765129848    0.34660092020492
Cl        0.98125524669983    4.67909505446589    1.55813028257150
Cl        0.35057285731709    9.91456105716499    0.64065813386597
Cl        7.69696156671240   12.23235158771714    4.31385399168875
Cl        7.09380771891862   17.46304692780006    3.35311643856503
Cl        2.16206715547827    4.83475670125233   -2.26907222647354
Cl        6.43440622840176    6.69497984348470    0.37340943404990
N         7.20559036832469   10.74600860260662    1.31408958523555
N         5.34211256054447    9.12499500485908    2.56918672752148
N         3.39700269746838   12.87539103090515    1.09571891968713
N         3.23480861485236   10.88907837115940   -0.82894503185497
O         5.63757639189923   12.22892620995530   -0.27325916532083
O         3.02981759989807   10.15978564516496    1.75773013355043
O         5.25851878818837   11.93683911582801    2.74712325133511
O         5.27735713462224    9.30274398073844   -0.12830394873641
Zr        4.79492602486971   10.90850464293749    1.03703103599396

