111
CSD_code = RIYZUU | q = 0 | S = 0 | Stoichiometry = C58H46N2O2P2Ru | MND = 8
Ru        1.49004615873520   -0.30173890202633    8.31382159840505
C         0.05149553958507    1.20061234942735    7.50087481804732
C        -0.58347353448761    0.52607028438316    8.58262699453662
C        -0.70243546053106   -0.83035524924939    8.22115926854975
C        -0.14102747714883   -1.01160059731337    6.92604018089810
C         0.30703102536584    0.25636171297927    6.47737919023599
P         1.87661223900465   -1.98702807029332    9.81837985857172
C         0.81137582200900   -3.44207781837713    9.49599447082564
C         0.86638232032297   -3.94907318449563    8.19912661451961
C         0.15633455370463   -5.08573179023162    7.86369217139101
C        -0.60810152069118   -5.73022163662788    8.82415766684863
C        -0.64584556058115   -5.24420647531136   10.11937590634322
C         0.06856772193610   -4.10853061348833   10.46199424635649
C         3.36500449599487   -3.02529562048739   10.08593620133460
C         4.27094157780617   -3.19449975549013    9.04571521485255
C         5.33380085943957   -4.06983866786325    9.17921991694242
C         5.49300123817108   -4.79440271217909   10.34798421499679
C         4.57124261207056   -4.65784130814783   11.37345884374223
C         3.50408259915991   -3.78922124543733   11.24148677775039
C         1.42416523762260   -1.47430864075489   11.51071713763977
C         2.39169715717324   -1.17324810869153   12.46634459828880
C         2.02043861410756   -0.66961399424205   13.70050876802394
C         0.68416674451862   -0.45578843196715   13.99658817039093
C        -0.28430242062017   -0.73464807702386   13.04477152228686
C         0.08416380397053   -1.22810273533392   11.80714650904059
P         2.72350159915534    1.33329014039369    9.28850035631148
C         3.98124909723843    0.90892870341096   10.53975722439559
C         4.14092903576500    1.53006094633282   11.77265984129525
C         5.15612974458335    1.11955701806888   12.62069033123622
C         6.01612477968532    0.10065428956380   12.24524385244458
C         5.86767882739764   -0.51252380268015   11.01009012869215
C         4.85363166845609   -0.10923083399920   10.16257693766957
C         1.70657050684061    2.59235353023032   10.12665847897122
C         1.02287446215875    2.20992003413656   11.27847129992507
C         0.16574956761150    3.09127523452439   11.90808794931741
C        -0.02992635280568    4.35999886914533   11.38405882373918
C         0.63569525293869    4.74093627881399   10.23096137032725
C         1.49996892486816    3.86256691529977    9.60013756227421
C         3.75791240221550    2.38885824918142    8.20545083210414
C         3.55059467378259    2.37831142742563    6.83152424697436
C         4.33623893012059    3.15685926304034    6.00043383393160
C         5.32903613590285    3.95893059027229    6.53665270830423
C         5.52664530358236    3.99049955948237    7.90774042455429
C         4.74690994580027    3.21014630583527    8.74090270442360
C         3.10079534037700   -0.73063525504385    7.24054402850072
C         4.02122871088182   -0.85732823163075    6.45417927867219
C         5.01639469996025   -1.15443739733100    5.49658602140661
C         6.51285044522744    0.48728882345177    6.49285463298331
N         4.87045668893478   -2.11003316516296    4.64307754084913
C         3.71941589151852   -2.84631128591641    4.56784415386529
C         3.71402172890059   -4.18544878947442    4.96138156565897
C         2.55226664886009   -4.93006209517824    4.83734099559859
N         2.54605693655907   -6.29125696989542    5.28927504373696
O         1.47568100393990   -6.87067603855961    5.32278491636565
O         3.59975594523463   -6.79265076098436    5.62359175391354
C         1.38677023250906   -4.38727822310224    4.30327874285260
C         1.40109720286007   -3.06634072533087    3.89415705153351
C         2.54285626158984   -2.30175453297669    4.03092905039190
C         6.23923904401822   -0.37303470912860    5.50239323246606
C         7.68115957994094    1.33439321551360    6.61877913151752
C         7.98045722353631    1.88436864914635    7.86810576900699
C         9.07442133331138    2.71026331547166    8.03279511542882
C         9.88622130750959    3.01370420034975    6.95147418549250
C         9.59835696838223    2.47929662020779    5.70566523671349
C         8.50945320879350    1.64620399510215    5.53905342663068
H         1.47794824002634   -3.43630214366536    7.46351735423508
H         0.19728617038416   -5.48430651639495    6.86154277286736
H        -1.16397441565446   -6.61751413768412    8.56134351194977
H        -1.22970477481166   -5.75405702722120   10.87233615368580
H         0.04232718181540   -3.74664181693967   11.48018706918144
H         4.13185233532567   -2.63354763498170    8.13215846473466
H         6.03454111294919   -4.19010951357324    8.36632089796332
H         6.32337346061352   -5.47646339057159   10.45517015372758
H         4.67812754033030   -5.23996238989922   12.27741309603052
H         2.77625418975986   -3.71051421983052   12.03660945709320
H         3.43535861356298   -1.33729195288988   12.24178939570984
H         2.78078358437874   -0.44190577617874   14.43324982269499
H         0.39761908773128   -0.06730604067341   14.96274313804827
H        -1.32776512485498   -0.56130922505820   13.26628919922276
H        -0.67277304555708   -1.42612325716745   11.06070721618837
H         3.47744025600711    2.32869633629530   12.07329305859732
H         5.27672455181595    1.60083916043696   13.58068915182299
H         6.80313871789050   -0.21488081505109   12.91437142629014
H         6.53613418387530   -1.30668762782284   10.71123797828190
H         4.71267842921124   -0.57536772576768    9.19486669311124
H         1.17304896432328    1.21423807850045   11.67109138099813
H        -0.35451742924325    2.78648753804937   12.80485062743759
H        -0.70428925361331    5.04876501588650   11.87130733861749
H         0.47920407104877    5.72715439015442    9.81812098716066
H         2.01671862531834    4.16392456064563    8.69892289877481
H         2.78307291218780    1.73624572855783    6.42021763659527
H         4.17770105188738    3.13392016842202    4.93222426954240
H         5.95177671764412    4.55785822911446    5.88898235518469
H         6.29730844766972    4.62059699404540    8.32678534048137
H         4.90551895168340    3.23203829923592    9.81042331686733
H         6.91326430348757   -0.55054634833103    4.67742644746800
H         4.59785505063690   -4.63362311915742    5.38767368367278
H         0.50414448973671   -5.00003923410277    4.21025843817118
H         0.50873526306497   -2.62627455152097    3.47309425329031
H         2.54886798914423   -1.26619135415372    3.72392934940041
H         5.80300848886727    0.56365621906950    7.30898609929046
H         7.34722405471338    1.64655900143235    8.71179857852342
H         9.29546192896448    3.12328562619251    9.00664531597207
H        10.73841152415801    3.66516008924382    7.07794325482896
H        10.22747151275201    2.71705658176685    4.85997148230075
H         8.28653373991471    1.24604965452864    4.56166745857201
H         0.15849019770121    2.27567255931848    7.41117438622914
H        -1.04206028698467    1.00528828159295    9.43727007873216
H        -1.25688804295195   -1.58959166034794    8.75969064839250
H        -0.23071012814245   -1.90241537518116    6.31923071369042
H         0.65944130639985    0.48184627194903    5.47858700712379

