81
CSD_code = RIZCAH | q = 0 | S = 0 | Stoichiometry = C32H44N2O2Pt | MND = 4
Pt        4.84742787677204    2.61924621625972   14.24425443119758
O         5.78998221876370    4.31699401696304   14.58952042740116
O         4.90627868025610    2.47899117499682   16.20997708606846
N         4.78707222869772    2.72907152889108   12.30695122330742
N         3.90779040265973    0.95581613422956   13.87855627937707
C         5.29554803131576    3.71918945059587   11.56678144477175
C         5.23734666456011    3.73552680447863   10.19406181354196
C         4.62297494927924    2.67914867325562    9.50065906892057
C         4.09653629441642    1.65864013990534   10.27207953827506
C         4.17886750040257    1.68653792129678   11.66544144837798
C         3.66915010673396    0.68097349075845   12.56213669796273
C         2.98577269363838   -0.47899986573648   12.18199555747446
C         2.53275705206982   -1.37967972237244   13.12429735222131
C         2.79964998497018   -1.06620645609709   14.47142886122259
C         3.47326467329608    0.08291761295710   14.79606043634671
C         4.52466104519002    2.62149593782516    7.98754192174833
C         5.15379712466234    3.84393935581532    7.31522745242491
C         3.04420601606043    2.55693646567402    7.58550745075831
C         5.25526438547298    1.36584400573907    7.49019116377959
C         1.78060783912969   -2.64976983084651   12.77862822510496
C         0.39677705134048   -2.60012756180739   13.44186519129667
C         2.57018013650356   -3.85479040203780   13.30913008299770
C         1.58778340461491   -2.82455062983983   11.27019741327498
C         5.98520419584043    4.51739740721918   15.88674068794257
C         5.51256943565255    3.51907917796445   16.77339836521191
C         5.70126758679948    3.66814431324472   18.15932797007238
C         6.34573032203754    4.81390340821412   18.58975709907433
C         6.81027298012767    5.81559119773932   17.72925352704556
C         6.62662935923139    5.65713690463476   16.36898194147636
C         5.20410087795756    2.59000782160026   19.11146783964982
C         5.49344036573204    2.90606889084965   20.58130496824421
C         5.89680731309470    1.26583685683419   18.76107602069809
C         3.68560760919748    2.44374308199265   18.94262046932763
C         7.50288169158377    7.03183396939347   18.32809601132646
C         7.92396632300915    8.05017701720828   17.26518843714380
C         6.54693367738970    7.73409195755143   19.30297376193143
C         8.76349166373533    6.57563723429028   19.07637331966144
H         5.76448167129169    4.52063960005998   12.12178900229515
H         5.67113234280397    4.56927218250714    9.67083318927556
H         5.05248034977966    3.75494886207770    6.23582668466703
H         6.21363883398748    3.91628789668122    7.54717065460175
H         4.65623399103260    4.76008844861581    7.62413173744081
H         2.56268553332960    1.66668634654645    7.98052587202203
H         2.95354568602006    2.53969090906856    6.50189710465165
H         2.51312386756592    3.42840214914137    7.96214914146123
H         6.29998798071631    1.39345553125096    7.79210966837750
H         5.21132332290909    1.31530416525180    6.40472483397600
H         4.80819992449192    0.46037034770684    7.89118714545397
H         3.61211055199850    0.81712727942663    9.80473725678491
H         2.82047755017234   -0.64855228427070   11.13244042813319
H        -0.15983732995342   -1.73443253023786   13.08916854221992
H         0.47712666251694   -2.53665121978521   14.52317934802019
H        -0.16653568096635   -3.49680253174616   13.19415842162827
H         2.05252945465965   -4.77776451749852   13.05838219916319
H         2.68356136190689   -3.81113187835632   14.38842737531128
H         3.56164569684791   -3.88274116217309   12.86212198953037
H         1.00811456547111   -2.00481932590970   10.85183593026845
H         1.04607596913974   -3.74834083370443   11.07996236351849
H         2.54506513612511   -2.88643045325917   10.75754353512717
H         2.47872592432341   -1.72105186038852   15.26416625103795
H         3.68628517585336    0.34067492247565   15.82460305155192
H         5.11443824664786    2.09731483632979   21.20406069461059
H         5.00149267548202    3.82604645160275   20.88918195174842
H         6.56261350077023    2.99532951784560   20.76043240013350
H         5.70261420873934    1.00195806323216   17.72596091110237
H         5.53247383231975    0.46482212144811   19.40241887963895
H         6.97257627290562    1.35891125999920   18.89726070396259
H         3.44284238698801    2.20976918800224   17.91061036028612
H         3.18785241848017    3.37339875206831   19.21173949973021
H         3.30704312658766    1.64797728750852   19.58227472030436
H         6.50126860478432    4.94749786215120   19.64651038445189
H         7.06078389785605    8.41427504661373   16.71343072345903
H         8.63346180305017    7.61321557017343   16.56691580427003
H         8.40319723144074    8.90182086713519   17.74523276157137
H         5.63820543189512    8.03268979361238   18.78476701329402
H         7.01816104357997    8.62357673177574   19.71753177631987
H         6.26983004278729    7.08168523339170   20.12600975381217
H         8.51714439806359    5.89281717546634   19.88459153114063
H         9.28273389422380    7.43372803796490   19.49962256736685
H         9.43823130696182    6.06418013275638   18.39323326916085
H         6.96105737279343    6.38346232716812   15.64719158052565

