95
CSD_code = RIZMIY | q = 0 | S = 0 | Stoichiometry = C32H56N2O2OsP2 | MND = 7
Os        2.71509780411092   10.75799974690239    2.91062787823502
H         1.61316260785606   10.45641122570693    3.96305648193972
H         2.72377573762677   10.81597574034934    1.34267061162934
H         1.34843846451593   10.32133281155971    2.29119259879994
P         3.29945672190655    8.37041062728616    2.85287329667314
P         1.88133810535706   13.03181811128607    2.85980863288736
N         4.82676034995488   11.33460495468521    2.45426501135364
N         3.69383076458180   11.05894209185212    4.76741769508810
O         6.67621124875691   10.89832266004893    5.83494692165896
O         3.75485037052258    9.50280165972988    6.52922373403899
C         5.44660769745008   11.17629387686496    1.28008276013510
H         4.86098267551002   10.74390332773376    0.48024670199094
C         6.76183735263838   11.53326322016433    1.05754786975549
H         7.20226442120502   11.37047983538404    0.08621130175649
C         7.49316157146739   12.09841291440698    2.09250447807149
H         8.52237504142803   12.39149545323160    1.95270942875994
C         6.86167048302591   12.27930926632586    3.31024742114133
H         7.37290259501159   12.71402878806907    4.15347950642828
C         5.54218915574780   11.87783059749698    3.45255371662083
C         4.78866077133187   12.02136631879960    4.73385728969168
H         4.47537866512840   13.06845258464861    4.86916736949349
C         5.36977335072990   11.38734919460821    6.01602100091497
H         5.31183435752262   12.03617729365121    6.90218972729841
C         4.14693973101483   10.43093296250458    5.85125275199768
C         7.24541735541359   10.14860743201663    6.82464058445372
C         8.59442552160362    9.84439881091683    6.64723457530631
H         9.09230336737542   10.20084191087449    5.75796293923194
C         9.26668613125067    9.10123772449728    7.59553058660682
H        10.31214676466387    8.87056860757254    7.44999247249086
C         8.60649298653002    8.65557295142632    8.72968138625000
H         9.13425928462128    8.07643119432420    9.47262783413065
C         7.26581972544968    8.95099265754940    8.89807202952869
H         6.74005553285164    8.59729851677272    9.77276265606501
C         6.57744553033502    9.69387243370204    7.95410606310116
H         5.52423168300463    9.88428963825277    8.08399575498296
C         2.55353162865628    7.43870753048475    1.39915790224869
H         2.86994108052382    6.39542847827133    1.49760904195438
C         1.02918962276515    7.48415887553533    1.41742410127297
H         0.68501682711297    8.51694839876838    1.39078706706964
H         0.62368920104793    7.01016147022371    2.30611049563104
H         0.63542442832347    6.96315265783153    0.54505025505413
C         3.05654771806858    7.98898481996881    0.06778954395907
H         2.62393554460030    7.41982707036397   -0.75450164672049
H         4.13908609453131    7.93193153466140   -0.01543409926316
H         2.75093546781625    9.02747640948749   -0.03764806948930
C         5.13509710183533    7.99907040002033    2.58804114422575
H         5.40151005850818    8.69090110131981    1.77613193417772
C         5.56169369459313    6.59724014622246    2.15243929358300
H         6.60997627938923    6.63317042178256    1.85349094634706
H         4.99027230933596    6.22200909720585    1.30869127040187
H         5.48559769164716    5.89267145021751    2.97614242410588
C         5.94589575346042    8.39462975453561    3.81873119619168
H         5.81942630814138    7.67450438753523    4.62475081985402
H         5.64636088334557    9.36778743364093    4.19259293368884
H         7.00795882947725    8.44228462835940    3.57577762691187
C         2.84314267959210    7.29286361819027    4.32279494983009
H         3.66159100289379    7.45904382534384    5.03276779634537
C         1.56829825290453    7.79424657701134    5.00086458842891
H         0.75268666965010    7.92297666404848    4.29349572598172
H         1.76412755878263    8.74472708189746    5.48712389513090
H         1.26070111352474    7.08410089143775    5.76682106672844
C         2.72416036303864    5.79359031300868    4.04896809468008
H         2.65637739259002    5.27198745637189    5.00317978995231
H         3.57874877992403    5.39278682888046    3.51384598879554
H         1.82348019813911    5.56605260393192    3.48414867176825
C         0.18045644887052   13.00779707434808    2.03161946495021
H         0.33932016333944   12.27435054667803    1.22903973722844
C        -0.86599916802554   12.41724857568860    2.97592219014973
H        -1.20633882651046   13.15756654253120    3.69516415041302
H        -0.45449690640050   11.56063747408190    3.50702109970320
H        -1.73194182410784   12.08375583378302    2.40585848104373
C        -0.35969073566245   14.28715963095322    1.39291049733585
H        -1.35009952399596   14.07246562577006    0.99179403558172
H         0.25774607613577   14.62712582498325    0.56645423018431
H        -0.46383275142816   15.09574389506989    2.10898789111178
C         2.72433708496269   14.34297296253262    1.79813680885835
H         2.02268553923912   15.18006201524316    1.72523666949321
C         2.97566976150334   13.78930481640759    0.39826733428551
H         3.27859021241050   14.59066328861737   -0.27581953287834
H         2.08767864175282   13.31080307834963   -0.00713676527817
H         3.77171781890315   13.04931537931198    0.42485309944421
C         4.03258724854715   14.87713167978740    2.37467295956591
H         4.74805492693563   14.07464340586104    2.53851094314799
H         3.88011585672454   15.40723949661425    3.31209211193746
H         4.47801117199488   15.57801283303240    1.66807585934825
C         1.70112041477603   13.99384235157050    4.47303454367518
H         2.74279159908714   14.24403980471936    4.71397422130255
C         1.18444455609044   13.11964702083486    5.61316591348122
H         1.34798252416608   13.62463141983122    6.56522005013018
H         1.70846057460169   12.16758715854019    5.63638131391392
H         0.12157043048338   12.92258994135146    5.51450232112615
C         0.91575776484638   15.30180794675330    4.41717395072903
H        -0.14616748633699   15.11394166522816    4.28747971768089
H         1.26262485482680   15.95759570603067    3.62244476083101
H         1.04235909020786   15.82986793735425    5.36265612440884

