56
CSD_code = RIZMAQ | q = 0 | S = 0 | Stoichiometry = C24H26ClIrN2O2 | MND = 8
N         1.76409488737249    0.44065246236559    1.50656416009595
C         1.73105063433891   -0.06777317587038    0.26875755716422
C         1.18910834095101   -1.44468876251766    0.75638436548907
H         0.14556753458642   -1.64142697019341    0.47987051682246
C         1.36815531847287   -0.80830061963732    2.15517330014091
H         0.45948723128586   -0.72771190476823    2.76187158633728
C         2.51266782641058   -1.30542557556429    2.97912470629032
C         2.58225461668412   -2.58917581291080    3.49587641186775
H         1.78063285604433   -3.28059104658367    3.29522292266141
C         3.68242060079023   -2.95350369277648    4.25152384286367
H         3.76319071667403   -3.94727556846325    4.66415628065977
C         4.67358317716219   -2.00901773482851    4.47507365870370
H         5.54313206940228   -2.24177211567932    5.06860938001836
C         4.53174400177184   -0.74896825177253    3.92725729316747
H         5.28041658336608    0.01046202712412    4.09655096727562
C         2.00219508862666   -3.19318130727849   -0.64367734674114
C         1.43182341015357   -2.66425140008316   -1.79397956486948
H         0.96992410509364   -1.69040562534707   -1.78079598929930
C         1.49502809579478   -3.38128365508309   -2.97715994484658
H         1.05165842307487   -2.96361810614430   -3.86887560062365
C         2.12068109685134   -4.61362333433238   -3.02707998366427
H         2.16402798269568   -5.16491272721894   -3.95421845126112
C         2.69930745059722   -5.13293112561964   -1.87974268812155
H         3.19605356476044   -6.09165254690362   -1.90883916068388
C         2.64112678499050   -4.43104599358180   -0.69293528060109
H         3.08393820985623   -4.81979230909107    0.21130313351497
C         5.27435445400725    2.36757303137257    2.15421874889185
C         4.56352627528442    3.20465089245836    3.05037720921362
C         3.41192683324233    3.72889106470096    2.34538347798074
C         3.42232568378145    3.19594690393918    1.02368031858624
C         4.54384156100014    2.30506209260353    0.91973462205583
C         6.61495629775221    1.74637502622886    2.37756378043873
H         6.88171957610610    1.73760341034247    3.43220640492123
H         7.37089599283423    2.32619435205978    1.84501650404066
H         6.65030151221950    0.72658631057255    1.99670348807396
C         4.99618884704878    3.67944971461075    4.40096889747795
H         5.78756607585001    3.05593566532004    4.81032699879223
H         4.15620475012416    3.66713261644673    5.09274499566780
H         5.36565737226217    4.70418025403711    4.33412650282650
C         2.52726526352933    4.80629296394019    2.88310772390039
H         3.09880024331260    5.72943041928455    2.99202218751213
H         2.13728060610592    4.52879707223462    3.86082572956475
H         1.68759782643955    4.99050912087367    2.21910564656099
C         2.53543087625531    3.57837756814699   -0.11458794524212
H         1.60078119720558    4.00402110790933    0.23990895166639
H         2.30929696434315    2.70850323964448   -0.72624203030193
H         3.04242156857224    4.31788969672703   -0.73703370658567
C         4.99703995015679    1.65637853754011   -0.34554358091218
H         4.14814952961007    1.22578098215050   -0.87385047500120
H         5.72178784118606    0.86962836824816   -0.14977838791618
H         5.46031052811954    2.39791029171934   -0.99872416054397
Cl        1.70410091829775    1.62154563967240    4.35707626419267
Ir        3.14961559836026    1.55478899563434    2.49073791343006
N         3.48280621296859   -0.39899345650584    3.18382260170670
O         1.98911922505780    0.37314138952397   -0.82972444148964
O         1.99055981110078   -2.58136839864125    0.58150968812052

