95
CSD_code = RIZMOE | q = 0 | S = 0 | Stoichiometry = C33H54N2O3P2Ru | MND = 6
Ru        5.37234886813470    2.26502199906046    3.31022655878490
H         5.57451314893051    3.54287065418711    4.09653145798087
P         6.52875117338794    1.33702075509112    5.15898152885140
P         4.26848787418882    3.72914447356716    1.74293779025257
N         3.52744882537547    1.82589272764350    4.22557707120187
N         4.82734140139396    0.43925022270129    2.34293780534593
O         1.72319957131081    3.24871022634195    4.74621058907089
O         1.00637326619424    0.53317074160816    2.95180162336331
O         7.97873030474136    2.61113192384051    1.89176324034935
C         2.26402231966991    2.21070301027689    4.41398371671232
C         1.67526241729158    0.78832552254178    4.16500421957215
H         1.13244364669847    0.34335310665921    5.01209767440562
C         3.17119079579043    0.41976689287413    4.06362952871154
H         3.49747355714862   -0.20451606393608    4.91445168682178
C         3.72232005705628   -0.16785956674859    2.80734603963362
C         3.16973216874194   -1.29364278380125    2.21615322698715
H         2.27384119715847   -1.72085434659316    2.63603306210660
C         3.77639525667850   -1.83808969556164    1.09757937676247
H         3.36206364434106   -2.70511997048901    0.60705616546452
C         4.94636457524274   -1.24685664187113    0.64302079311437
H         5.48143574461380   -1.64462877963685   -0.20476266447948
C         5.43007888966722   -0.12794399789383    1.29217486317601
H         6.35090376692829    0.32799254184997    0.95457526539714
C        -0.24055108156788    1.05210978520213    2.75098855082523
C        -0.86994936825606    1.95591019415341    3.59721765903041
H        -0.37083410397640    2.32341668335491    4.47938582933174
C        -2.13547827556333    2.41822276310613    3.27837515689080
H        -2.61685218900329    3.12491350838530    3.93807968333734
C        -2.78003901211582    1.99249142310934    2.13098644681054
H        -3.76611819790631    2.36095809564289    1.89099196323979
C        -2.14923787320759    1.09095717750398    1.28834826110019
H        -2.64209542719619    0.75120966356696    0.38887662972674
C        -0.88919864672612    0.61920653911209    1.59421625432227
H        -0.38566942036704   -0.08880300500342    0.95241130252217
C         6.96187320023226    2.48400835887985    2.43670763639794
C         5.57118933381369    1.21220178372279    6.76885377486057
H         4.82653228380859    0.44034485472448    6.53146519711917
C         4.79590402374042    2.48985420234526    7.08659097258944
H         3.99636136929731    2.26686738134707    7.79217260820456
H         4.34744208243957    2.90096525070306    6.18448565147057
H         5.43574635764438    3.24402025084925    7.53380985792337
C         6.35288660500333    0.75079699322390    7.99707132632595
H         7.03862647320970    1.52302340637148    8.33458324585435
H         6.91040510415074   -0.16465254907499    7.81438821463305
H         5.65156519334940    0.55790796581528    8.80892812778764
C         7.26439024239784   -0.38870608721318    5.03282494407107
H         7.92448546718972   -0.52562547575662    5.89482390826303
C         8.08937348223034   -0.48465013177828    3.75175316243876
H         8.64516540856283   -1.42193876518246    3.72769574395053
H         8.79649659133199    0.33684542231465    3.66341028478958
H         7.43295367443817   -0.45815911898139    2.88462001028962
C         6.22111684972126   -1.50175471746548    5.04973663118640
H         5.51434377599379   -1.38453293520960    4.23065571876625
H         5.67139641729552   -1.52872454855531    5.98782054238594
H         6.71544652738944   -2.46548407839414    4.92597173131229
C         8.09972585344448    2.32842260438578    5.50102477394266
H         8.45836132757350    2.54977535833186    4.48670947403684
C         7.77780584190150    3.66886333085865    6.15943943577940
H         7.61299059539612    3.55049836273297    7.22715968626727
H         6.89376889522802    4.11107124303915    5.70464864833131
H         8.61186873409073    4.35573202551686    6.02337674761780
C         9.23829873799025    1.64771160221052    6.26242106444521
H        10.03652235634351    2.37633942936411    6.40236801384578
H         9.65868288452543    0.80831237636790    5.71613318560677
H         8.92772804969509    1.30654653649881    7.24504951324151
C         4.17214143847842    5.49413418750135    2.35742981310635
H         3.56600606782719    6.04962435638234    1.63353844844826
C         3.49032252346190    5.56715297637371    3.71874434136109
H         4.13518896961423    5.13482858418624    4.48049730021927
H         2.55265221441644    5.01909111549740    3.74418774618666
H         3.29345746329115    6.60596217222631    3.98131083752355
C         5.55978730914959    6.13009065103722    2.44394918614312
H         5.51197518308063    7.02155004331148    3.06699574446544
H         5.93887754077929    6.42627463045042    1.46880767669525
H         6.26183462476546    5.43126284844825    2.90211234606189
C         5.16848034659751    4.05070983567371    0.11719238336163
H         6.09969770738600    4.51168013368450    0.47289034105449
C         5.57825075858217    2.78487059756457   -0.62953333804094
H         4.72509807647894    2.24629076980611   -1.03083593809700
H         6.13259301562733    2.12594431847947    0.02940820664377
H         6.23021447086844    3.05094208573475   -1.46154754951228
C         4.48872887662248    5.01263477170844   -0.85404970595208
H         5.19151104800551    5.27387212071520   -1.64547044530382
H         4.17564590196077    5.93449702116606   -0.37308476662223
H         3.62551060982742    4.54715555144550   -1.32270444813176
C         2.47427231387930    3.34062525710373    1.33622255192844
H         2.09393259027279    2.97301923786959    2.29467006092839
C         1.55768255701127    4.48790676950949    0.91793471685401
H         1.88353764236920    4.96582059448964   -0.00123945295495
H         1.47580218577421    5.23649865481890    1.70024968800477
H         0.56022711495760    4.07997444490921    0.75111969619562
C         2.37722203217098    2.19043371398017    0.33527768764223
H         1.38365816983663    1.74650114187311    0.37968719079906
H         3.10342144393386    1.41035985121125    0.56061160175715
H         2.54201718872543    2.54127545105726   -0.68156011121191

