49
CSD_code = RIZPUL | q = -1 | S = 0 | Stoichiometry = C4H20AuB20S4(1-) | MND = 4
Au        3.02170530622613    4.03104041447616    8.01403596615185
S         3.80303083753141    2.98560395639157    6.05437843388813
S         4.08300161981395    2.35822829656145    9.28683035009581
C         5.30761109314771    2.17818218370903    6.64867273909532
C         5.44137310882285    1.87847684732985    8.19426932444432
B         6.43597627392651    3.11970734155019    7.54116362205156
B         6.83342255502824    2.53646538122011    5.93675761618261
B         6.05145617792019    0.96514254703465    5.69547793007004
B         5.16754607710606    0.52914183448613    7.14865997974173
B         7.07476376524175    1.99578404966055    8.72488221972441
B         8.01214109294847    2.38736800473879    7.26272583342582
B         7.77916222172751    1.04646884193100    6.10917776312174
B         6.73671185549114   -0.18892334135623    6.87352197642500
B         6.29349384120477    0.42292774593124    8.49177777678174
B         7.93051012003437    0.70743316983434    7.85770062544826
H         6.10758510430737    4.22407164542183    7.78380466929291
H         6.84514287035858    3.30586171463025    5.04825539815893
H         5.57048697595674    0.72321767997365    4.65097090291194
H         4.08199480429773    0.08517339930599    7.15656142280768
H         7.25824370978972    2.38049967242453    9.82027327775021
H         8.99159723918566    3.04105032162982    7.30468380632275
H         8.60876174695810    0.75157277523812    5.32514197428642
H         6.83613686728555   -1.33991549735492    6.64172113416255
H         5.98468339066212   -0.20468135665288    9.43600584242357
H         8.86861585243192    0.16944631633960    8.32718517181818
S         2.24121016287328    5.07552180164868    9.97126922733695
C         0.73618857661004    5.88277511434771    9.37801409164910
C         0.60236355063325    6.18232463842586    7.83242889138360
S         1.96110588532474    5.70233902309856    6.74046492921507
B        -0.39201045502142    4.94096911612772    8.48568113807838
B        -0.78956905932367    5.52432403934691   10.09003842164858
B        -1.03101364017732    6.06464231405070    7.30186353029536
B         0.87595713005644    7.53178756162299    8.87792932003141
B        -0.00786869380386    7.09579793482059   10.33113268057780
B        -1.96831773878206    5.67305455177682    8.76406740399257
H        -0.06336948061971    3.83664763917475    8.24314619152921
B        -0.25003662478950    7.63767719783311    7.53479157395006
B        -1.73556990002561    7.01414478699206    9.91742862949301
H        -0.80114168093426    4.75497927763085   10.97859125506755
B        -1.88700944223262    7.35294472720739    8.16887182697958
H        -1.21437772407803    5.67976302933374    6.20651175165946
B        -0.69334743375615    8.24962214070271    9.15296026960107
H         0.47310121213981    7.33791274458661   11.37558920316515
H         1.96143970665372    7.97591126919637    8.86992861715817
H        -0.79293804266149    9.40062679685573    9.38461394855130
H        -2.82521071607172    7.89072572452793    7.69932441915747
H         0.05871368255010    8.26521131842936    6.59049480527587
H        -2.56519770671714    7.30897348322980   10.70145118704643
H        -2.94765607525169    5.01917982457829    8.72217093057315

