66
CSD_code = RIZRIC | q = 1 | S = 0 | Stoichiometry = C29H26ClN4O5Zn(1+) | MND = 5
C         3.80805975547357   37.59528819367937    8.55297931664006
C         4.94672051486581   38.33987169097830    9.19213832906660
C         6.27236948037830   38.17133672822865    8.75938330201271
C         7.27811009441345   38.83973326910613    9.40567542533961
C         6.97155524559129   39.67643628590401   10.49809054526371
C         5.60349829684531   39.78901150225136   10.86045427009428
C         5.22287319921346   40.59689238908634   11.96496897779928
C         6.20043647385165   41.25684739740139   12.67553604908305
C         7.54802051319030   41.14997997332782   12.30226929646556
C         7.93813473951407   40.38249893141762   11.23938358701141
C         2.49583870324201   39.38205924643160    7.57112737537527
C         1.93104991560157   40.68634754880266    8.07742197012619
C         1.10977439852244   41.47684371166880    7.29018450831594
C         0.64258872322593   42.67853806363246    7.79849929997075
C         1.04569226957827   43.06741032518488    9.06565442696378
C         1.87585175076764   42.22513417934303    9.78200432876234
C         1.40348713375924   37.52330318351559    8.71846920716742
C         1.17318590170016   37.06450036347597   10.13532726917189
C         0.23985858027132   36.07410826185763   10.41128216979741
C        -0.01873711121135   35.73634145304863   11.72752924008556
C         0.68331072300627   36.38671017165505   12.73154467692541
C         1.60210072380713   37.35320614597443   12.37531595455742
C         3.46025164199922   41.20292601671735   13.44347766388691
C         3.99694177878201   40.49253822113376   14.66154815376158
C         4.38066870174216   39.15944505577322   14.60269441062518
C         4.85100105661009   38.51606183015422   15.73425441798723
C         4.93621487353056   39.19686571369022   16.93626773227726
C         4.55071495954172   40.52541775109376   17.00259586343356
C         4.08716589981596   41.17144738898403   15.87055795275410
Cl       -0.14006421740075   40.11606752186461   11.28982484948140
N         4.63521273110843   39.12472075582586   10.19829388738555
N         2.30141180220699   41.05834119947945    9.30444019029563
N         1.84634131768249   37.68319585994406   11.10645781434077
N         2.57935453894673   38.37700457511392    8.62813389215165
O         3.89027970639603   40.62280784716700   12.21313693001559
O         1.18242460559873   40.28893484154842   11.88441669888747
O        -0.83060370699876   39.14176567981919   12.02416977753653
O        -0.77495957209227   41.36251095579755   11.26859962075278
O         0.08806669941807   39.64937314574437    9.95659338711087
Zn        2.61783750635532   39.48858312577522   10.54817363498642
H         4.05723434474009   37.31908807106354    7.52008150934143
H         3.66711646383026   36.67098954358634    9.12243034056963
H         6.48201226924068   37.51822115712208    7.92702861677738
H         8.30592414280452   38.73296199872298    9.09334493113748
H         5.95310106881443   41.85759316330674   13.53463654082611
H         8.28406477024457   41.68675625730307   12.87984995974971
H         8.97699168267692   40.29951338346603   10.96284215308459
H         1.90646145126208   39.02398876211082    6.71960299664217
H         3.51057182412425   39.59433089150625    7.21542726551874
H         0.82136643529019   41.14562231260210    6.30484275786910
H        -0.02707926526969   43.29434621673337    7.21859227262049
H         0.70487385858980   43.99089069384519    9.50289563452855
H         2.20308086400284   42.47760537850855   10.77958826368701
H         1.47177646575358   36.66040210002505    8.04183920778923
H         0.52708033400538   38.11731716645770    8.44847933557496
H        -0.29231243249328   35.60045602562353    9.60124966603489
H        -0.75909185138471   34.98896003788550   11.96592266255863
H         0.50788038915456   36.16415607376478   13.77067548871327
H         2.15739535492707   37.89984598619899   13.12348923461680
H         2.37176771516606   41.11302818103781   13.40509840372351
H         3.72561846438567   42.26758879184801   13.46664829466955
H         4.31922367354753   38.62192903674826   13.66570194809451
H         5.14944480049889   37.48010390727544   15.67610924153663
H         5.30123903586288   38.69425187377566   17.81832472809014
H         4.61429849607723   41.06123362789621   17.93696956493143
H         3.78771929530176   42.20791285998014   15.92465257769270

