52
CSD_code = RIZROJ | q = 0 | S = 0 | Stoichiometry = C26H22FeO2Si | MND = 8
Fe        6.10826708040073    2.25436291647062    1.45815385747705
Si        5.01462392180072    2.25153872150418    3.41695515104991
O         3.65147141142363    2.39441077832336   -0.05431988567917
O         5.99049818277515    5.14225644531240    1.52119022741269
C         4.59761746222419    2.31537715196322    0.59318701980946
C         6.04792488416804    3.99523909728828    1.53743481160559
C         8.09800561594181    1.56810887246588    2.14347039187692
H         8.66936798979708    1.86908876146610    3.00616043637134
C         7.24406498789104    0.43985793194892    2.07631022247556
H         7.02863362555267   -0.23872670118104    2.88395673418804
C         6.81820818564456    0.30499232210649    0.73799797429039
H         6.25331004213303   -0.52072012036540    0.33580596638453
C         7.45036235818268    1.31919641957402   -0.03297388477410
H         7.41950011585330    1.40406483580592   -1.10710021213678
C         8.25263874882880    2.09657863184492    0.83294219788121
C         9.20696916015853    3.17493708106225    0.43041319727730
H        10.17902139586199    2.73684959525960    0.19670976892013
H         9.34318182885580    3.89147411151452    1.23692092933538
H         8.85017301773308    3.70175034398501   -0.45141432609084
C         6.37620575749777    2.20306195122117    4.75217875668665
C         6.59633679425355    1.09239745214455    5.55610806515466
H         5.95535960938225    0.22856441838377    5.45004069991832
C         7.61607683105183    1.07880731254747    6.49239666208673
H         7.77139766361902    0.20532706264620    7.10994213879798
C         8.43712425513945    2.18369504502970    6.63843135477139
H         9.23417231675865    2.17575645514709    7.36792827781369
C         8.23201804946481    3.30080289247665    5.84375722083713
H         8.87039369392296    4.16624689897160    5.95381056413194
C         7.21330146127016    3.30389407488620    4.90960980177858
H         7.05557153711339    4.17173234350280    4.28434988878430
C         3.92025936252900    3.74128377044781    3.90475042119664
C         3.02950273794678    4.29643318141299    2.99225959667054
H         2.97330399179352    3.88598150704781    1.99503315384208
C         2.22122531848809    5.36404485107847    3.33721103614004
H         1.53831005439166    5.78106877934523    2.61099342676953
C         2.28893445084241    5.90032103126920    4.61231460512362
H         1.66028435029219    6.73577029856611    4.88466262302181
C         3.16816064405096    5.36021938043126    5.53484417419419
H         3.22748305809800    5.77337832570663    6.53192022235956
C         3.97307462370948    4.29198890445040    5.18110177837436
H         4.65979875078964    3.87960837178092    5.90639346043687
C         3.89175884570998    0.72574338673197    3.66335571684387
C         3.25858345425217    0.52345484574023    4.88604214391726
H         3.41028234548833    1.23886137518485    5.68120988521384
C         2.43903427813553   -0.57109535471408    5.09306596590584
H         1.95648538093921   -0.71230112629319    6.04966258299092
C         2.23268565183551   -1.48497393166859    4.07272809757883
H         1.59187258684681   -2.34031633391125    4.23135479128444
C         2.84706924031830   -1.29326619004274    2.84686673151040
H         2.68463886023963   -1.99959482992314    2.04505565271301
C         3.66753157196529   -0.19683009130552    2.64945597553407
H         4.14252245664277   -0.04350325463310    1.69046394993072

