63
CSD_code = RIZRUP | q = 0 | S = 0 | Stoichiometry = C25H32FeO2Si3 | MND = 8
Fe        3.25473282941502    5.39392552872305   -1.48622822701639
Si        2.15516967955924    5.96068830120848   -3.35646702400103
Si        3.66017408283512    4.30166633908015    1.91859818533858
Si        4.58225206356993    5.13672534854178    3.91050404262241
O         5.13680213902920    3.91923639139299   -3.10070870283066
O         1.79276312095067    2.90860625612616   -1.60389687801699
C         4.39811815691820    4.54960488428181   -2.48584736604759
C         2.33833420751247    3.91941428422188   -1.53813770898045
C         2.04653864788480    4.59751390260869   -4.68482944488093
C         0.99366498471789    3.68838555408302   -4.69540570846434
H         0.20245629639362    3.78908619356630   -3.96776683838202
C         0.94099923881983    2.65945771888228   -5.61783275429781
H         0.11318975509302    1.96456101808332   -5.60611583312877
C         1.95066099193742    2.51697932160873   -6.55435609344155
H         1.91438212800701    1.71279581968229   -7.27519184736456
C         3.00766018516712    3.41124622491116   -6.56046987034326
H         3.80000104196928    3.30576011316897   -7.28802482556250
C         3.05127116902414    4.43644548253885   -5.63351625733080
H         3.88131767299831    5.12693597957007   -5.64480920651172
C         0.34793325479793    6.45625825006701   -2.92256703078299
H         0.30158099735247    7.43416123576002   -2.45782399551890
H        -0.09137154484676    5.74526007063231   -2.23135276567935
H        -0.27212250969090    6.48541769027612   -3.81227922221768
C         3.02888098829931    7.46530822214494   -4.17552836806309
H         2.64238309049904    7.64129183315782   -5.17372998139906
H         4.09717287579333    7.29686627960532   -4.25587446080710
H         2.88209091709268    8.37156617721997   -3.59962857237463
C         2.40525729131801    6.42078486765383    0.22906015132807
H         1.42227903606008    6.32129993411545    0.65934507248852
C         2.80192905795221    7.42784938180124   -0.67462678024246
H         2.17719835527552    8.20930052623171   -1.07132860916154
C         4.19132809069916    7.28675978196996   -0.89065781414629
H         4.81063799832524    7.96192203522378   -1.45810460115459
C         4.65524530747396    6.24188151691118   -0.05367287532888
H         5.68783605342437    5.96556023625731    0.08506833578592
C         3.55786354151524    5.69207698789629    0.64893546246805
C         1.89774938590802    3.60683735246968    2.15568819032157
H         1.47621473621624    3.26107290103551    1.21648119761303
H         1.22521244257536    4.35313448420961    2.56720184896968
H         1.90746254181186    2.76682819134895    2.84327133026404
C         4.72396784531350    2.95827152390229    1.07273152437458
H         4.35534079505177    2.75358858338356    0.06966369580024
H         4.71495343711978    2.02756365101878    1.63087331863017
H         5.75858794165407    3.27343157237381    0.97770202765069
C         3.65806626662345    6.70470317074341    4.49780461921573
H         4.06629873741001    7.09553290858448    5.42542123902653
H         2.60246528128264    6.50709325617602    4.65688985111089
H         3.73131058907582    7.49002701933179    3.75137421972983
C         6.42329275141998    5.61659098812404    3.69164521762465
H         6.53411164042718    6.40342013814006    2.95137464312426
H         7.01569027314015    4.76913551146884    3.36105549722980
H         6.85865603130821    5.97510698861164    4.62026087869319
C         4.49466741601999    3.80269385068010    5.26219947267634
C         5.21293603560653    2.61894425084151    5.10982697741639
H         5.82876051394830    2.48624789113272    4.23152609319087
C         5.15627899489889    1.61478770662290    6.05788126059586
H         5.72547309645335    0.70632353571534    5.91965016002929
C         4.36806068610878    1.77214273935742    7.18600459609368
H         4.32036404504493    0.98946929340325    7.92927230914292
C         3.64153013280147    2.93813466280560    7.35398515185705
H         3.02346604814977    3.06725478313945    8.23136405498013
C         3.70631148146281    3.93843115187027    6.40025818612084
H         3.13555965986563    4.84373220407568    6.54416085190813

