121
CSD_code = RIZSOK | q = 0 | S = 0 | Stoichiometry = C48H64N8Zr | MND = 10
Zr        1.93311881316615    2.50296488335701    3.12614733412376
N         0.34056572689402    1.78430640369724    4.68853391592642
N         2.34230892894617    0.78281688694597    4.38379918053245
N         3.81385953969089    3.27481349955196    2.60562505686919
N         2.86324424053310    3.71974286515816    4.56269821040800
N         4.99825542513902    4.76308656583744    3.91940073705557
N         5.17503077869381    5.59967907282816    5.03648749696172
N         0.77013687802563    4.42731272724875    2.87725390671526
N        -0.82763371931337    8.27153945269320    3.31293908652281
C        -0.83004602280809    1.72399382188079    5.55309785500485
H        -1.68503524867278    1.31303533393137    4.99860934818925
H        -1.10770905502725    2.72714168482376    5.89578505122706
C        -0.46035950192178    0.80364129757669    6.73605478255685
H        -0.13316362414732    1.40044877758488    7.58856938033740
H        -1.30228666132465    0.18990804830091    7.05241381076152
C         0.70171188591303   -0.02533013599598    6.18651121141090
H         1.48981047638223   -0.21285370316055    6.91501093808955
H         0.34400318829439   -0.98488336336494    5.80618140501716
C         1.18848424967187    0.83517486146346    5.02970182196437
C         3.38766139224707   -0.08086477258366    4.68444873238656
C         4.67905051515659    0.44579889837853    4.55246268148001
H         4.75900899997325    1.48234878991999    4.24117073003962
C         5.79752968013182   -0.32315031198656    4.82209813468605
C         5.62574008463782   -1.64993807397095    5.20588058892119
H         6.49341805145488   -2.25923747005602    5.41560587464077
C         4.35986324273443   -2.20447239896663    5.31687759467014
C         3.24546041012601   -1.41839437177121    5.06138235287427
H         2.26546448479702   -1.86407593073749    5.13275499378136
C         7.18037831227540    0.24357183745464    4.69370930746470
H         7.61709482141371   -0.04707207505943    3.73766849026597
H         7.82530631386513   -0.13966667927330    5.48220510624429
H         7.16611741365264    1.32833069915746    4.74368481773157
C         4.19576561160863   -3.63634439687099    5.73553729270707
H         4.98727847007533   -4.25400473273044    5.31679019390947
H         3.23436736758189   -4.02974748435045    5.41347230209328
H         4.24848270221540   -3.71623719655538    6.82195922773021
C         3.94992344759020    3.99214497246951    3.77515108044665
C         4.88059942502228    3.32459727611385    1.60752314484091
H         4.53692972506053    2.70531256673200    0.77135146071612
C         5.16469016233294    4.73285262183249    1.05648429534506
H         4.24559532237773    5.22546181626645    0.74171053519713
H         5.82707791978901    4.66246246422207    0.19572049958215
H         5.64263828132924    5.32475795860270    1.82954359953281
C         6.20105562751518    2.72248895662228    2.11211216948678
H         6.52906874486616    3.27233620160907    2.98917908480317
H         6.96294837238838    2.80065470410094    1.33916553851477
H         6.06740302430996    1.67335790053408    2.36290683908923
C         2.73649991150884    4.18059538504658    5.93115649455514
H         3.57770336721588    4.81968939824836    6.21108754144388
C         1.45234565187183    5.00650160878541    6.10164020611117
H         1.49341726762434    5.89602437046073    5.47357728670698
H         1.34096557844558    5.31975128760067    7.13817262901253
H         0.59168705545510    4.40284342634611    5.81267136619177
C         2.72888300078985    3.00078333428807    6.91735328634592
H         1.80587009640462    2.43921776601085    6.81452855583045
H         2.80990200136135    3.36792390340579    7.93940856773624
H         3.56910883158294    2.33814318089703    6.71765591055983
C         4.60587616084109    6.85404966488192    5.00909754672325
C         4.23396002324374    7.44004535598062    3.79295789299567
H         4.43263383896956    6.90094970899563    2.88123173615925
C         3.66362047185730    8.69466212445145    3.76232411520680
H         3.43555387562295    9.15214029171259    2.80764664581247
C         3.40604230612204    9.38635957506968    4.93634794454048
H         2.96770349048810   10.37409024448821    4.90984520844356
C         3.72745896883652    8.79418814002087    6.14939779556497
H         3.51128704930639    9.31224333807501    7.07355055101241
C         4.31746772977125    7.55000001350858    6.19345769307024
H         4.54768702470609    7.09843306964416    7.14727913662322
C         6.09937118680380    5.19061733821451    5.98193720472138
C         6.91335636944197    6.09752404611530    6.67152696207946
H         6.83366958061823    7.15434098707152    6.46415052857520
C         7.83490996418803    5.64508801417474    7.59238978423669
H         8.45599852397450    6.35993393581717    8.11431065765116
C         7.98280390957845    4.28934492201885    7.84396773863732
H         8.70516485769074    3.94463095217418    8.56893237332343
C         7.20311821450952    3.38322252006629    7.14293867019784
H         7.31381035249442    2.32267138024195    7.32068897785445
C         6.27747575630448    3.82272253110224    6.22087583047720
H         5.67128910381059    3.11814972937341    5.67256051696037
C         0.90021728193063    0.47147314986275    1.86168036977328
C         2.01115594044892    1.02234114411598    1.16208659391316
C         1.58988549471775    2.26469335193994    0.59937801879192
C         0.23366999773928    2.46657453955380    0.96691245147658
C        -0.18940315759261    1.36372692437555    1.74130506346518
C         0.82205503795611   -0.93847827924006    2.38239382681605
H         1.80190318385034   -1.30554049387018    2.68369475342237
H         0.43619975339152   -1.60426330749779    1.60389468570307
H         0.14776338294140   -1.01140560263419    3.23567837475650
C         3.30168084148126    0.27602266632109    0.92008183115009
H         3.83100222200605    0.67943499294282    0.05793475275692
H         3.08928327052464   -0.77398935279242    0.71005394450731
H         3.96787665116337    0.32100895130597    1.78949676307768
C         2.25232439918245    3.06840806322930   -0.48971488473588
H         2.56146233181191    4.05850537173995   -0.15145818558218
H         1.54924697300926    3.20587356753423   -1.31428129390542
H         3.12437003444108    2.55444258094412   -0.88791365636784
C        -0.66179926394312    3.52349017350751    0.37834757377075
H        -1.53346412606487    3.70317138031873    1.00619372186390
H        -1.02528695167327    3.20292508745916   -0.60259498009487
H        -0.13424696695532    4.46848555410856    0.24362291364619
C        -1.61346287678899    1.07045721577977    2.12137634842059
H        -1.66369246704905    0.29747657375738    2.88515192047484
H        -2.16747328445487    0.70897841779849    1.25076531187952
H        -2.12873778326809    1.95816603015359    2.48982276740352
C         1.44487697589849    5.52192935573056    2.49964551377912
H         2.43662371420382    5.34701499301519    2.09501399912437
C         0.95636249078880    6.80191476332852    2.60758405571489
H         1.56950616146289    7.62131580403065    2.27811610802137
C        -0.32389970208326    7.02821283842177    3.15482630400812
C        -1.03975288171000    5.86846775321093    3.51441870702892
H        -2.03157355060847    5.93395290583143    3.92901893923906
C        -0.45984074228695    4.62970091504549    3.36387869176828
H        -1.00524510188119    3.73587757461343    3.64750169922809
C         0.00975293430767    9.43091680727789    3.10540656641749
H         0.95852460210019    9.31945590784157    3.63449374370501
H        -0.49313400250200   10.31381011804767    3.49139301181161
H         0.21236133065887    9.58751140065904    2.04165410711763
C        -2.17415605238690    8.46559406699924    3.79401583355514
H        -2.88093676571387    7.87773410221998    3.20469400420131
H        -2.44553622696463    9.51344071916578    3.69429387725361
H        -2.27071884820246    8.18147898008295    4.84689129743997

