69
CSD_code = RIZTID | q = 0 | S = 0 | Stoichiometry = C22H42FeP4 | MND = 6
Fe       -1.00612319740396   -0.00022959038021    8.14729687846008
P        -0.37489368228076    0.92636425516188    6.32460734822370
P         0.64082392219552   -1.32695681263089    7.89795189313556
C         0.24740161115980    1.06702457513614    9.09028719778218
C         1.04480718289797    1.71140063229890    9.74025414528635
C         1.95542282150474    2.49945029308568   10.48486249268944
C         2.63154283933073    2.00441069669928   11.52210415955227
C         2.10978358196752    3.92487399630150   10.03020242675953
C         0.09289097402044    2.69598430833679    6.35565525594721
C        -1.33264094907085    0.86014475946380    4.76402511952043
C         1.19136085905310    0.15456942162751    5.70234859577402
C         1.72025382151317   -1.93086780687360    9.24306122845380
C         0.39097240748884   -2.86962161221976    6.94203368003207
C         1.91451682942125   -0.47124373429590    6.87872438864002
H         2.51444073568522    0.98030847732143   11.83901627534159
H         3.32385915237102    2.60628692873868   12.08835661274327
H         2.78507489842452    4.47158907223388   10.68559613669678
H         1.14048479815403    4.42497917252257   10.02189199957428
H         2.50672607107886    3.95547617411213    9.01398068362855
H         0.82190349922156    2.83254402427592    7.15334427061868
H        -0.79120573650204    3.29024187081560    6.58657447891382
H         0.50614040916390    3.00601450225349    5.39516052573517
H        -2.16476521751237    1.55913185499180    4.79559323934116
H        -1.72619017110535   -0.15030340750167    4.65612424319908
H        -0.67923403881925    1.10665081788920    3.92545021151872
H         1.80282889059440    0.89586813143609    5.17727605663995
H         0.89770728725249   -0.62482023537886    4.99008875697961
H         1.96931514588060   -1.07991405356043    9.87624385819078
H         2.62920222572709   -2.35589665744488    8.81405851553766
H         1.20709973466264   -2.69332228171927    9.82851359603127
H        -0.24374679703239   -3.53683534261289    7.52382703791956
H         1.34048085591557   -3.35691249603281    6.71690312627542
H        -0.14362994539395   -2.61895718144265    6.02646773750288
H         2.70416901943618   -1.16335708765718    6.56647033062414
H         2.34426614471168    0.30185175671961    7.52448882068958
P        -1.63679898060213   -0.92662704740424    9.96988516973096
C        -2.10470692025569   -2.69619524671619    9.93858027459528
H        -2.83355517460000   -2.83276815994764    9.14073068478897
H        -1.22057834995666   -3.29054662971222    9.70797987814383
H        -2.51820866403033   -3.00601655248217   10.89902324899695
C        -0.67862477078299   -0.86020887010032   11.53017714176393
H         0.15327994211750   -1.55943594644023   11.49857106219912
H        -0.28476486457909    0.15013597370077   11.63783420845125
H        -1.33198357663214   -1.10638298735742   12.36886367576801
C        -3.20295747313979   -0.15450810542411   10.59179836779170
C        -3.92607317233492    0.47090062161219    9.41522743017845
P        -2.65270638870668    1.32682517929921    8.39573531479267
C        -2.25971545738215   -1.06710327187679    7.20401632332009
C        -3.05652741510514   -1.71139235066013    6.55320159508986
C        -3.96736723487147   -2.49928561623563    5.80875862951449
C        -4.63829870645494   -2.00617171461238    4.76725267950405
H        -4.51703601566364   -0.98363591125842    4.44693060895887
H        -5.33111350094272   -2.60786604527263    4.20145652044356
C        -4.12835286170759   -3.92221877779052    6.26890864547843
H        -4.80357612670455   -4.46921275367950    5.61366208560734
H        -3.16086851267328   -4.42571831356345    6.28225255730126
H        -4.52853445144351   -3.94722420530659    7.28403024246594
C        -3.73244778691656    1.93026208990570    7.05068265810297
H        -3.98133859621298    1.07917592781798    6.41759530968573
H        -4.64146733670540    2.35518366067961    7.47965859305932
H        -3.21940310878018    2.69272010283834    6.46516644627911
C        -2.40329371251449    2.86944629435702    9.35181693619738
H        -1.76906496997020    3.53694288914602    8.76983427353368
H        -3.35296236613536    3.35629011165381    9.57727655558957
H        -1.86827677758216    2.61889394085721   10.26718537854002
H        -4.71589870324204    1.16277556639967    9.72733565894847
H        -4.35569027724207   -0.30239431847972    8.76972709875288
H        -3.81428842736932   -0.89565702343846   11.11715507680803
H        -2.90924524459311    0.62509006781754   11.30374834565433

