144
CSD_code = RIZTOK | q = 0 | S = 0 | Stoichiometry = C71H63ClN2O2P4Ru | MND = 6
Ru        2.33055902406932    3.60747256266316   10.01513742475833
Cl        0.81545228208158    2.91367161576006   11.62734896991473
P         3.10208223082259    6.19269339098782   11.88250744468743
P         1.16450191630609    6.68182471841450    9.96593584996663
P         3.72895164529704    1.89248552866907   10.60759828199052
P         1.24981586994584    2.74983532950214    8.17665836196807
O         3.26969350632417    4.70924481388203   11.70435679892495
O         0.92160837571798    5.24870107506284    9.58301644043855
N         3.62676053129705    4.49336140308247    9.01840139332695
N         2.61694924730142    7.05953397837435   10.59066811113413
C         4.43286553627459    5.28594754990472    8.76656909804472
C         5.44272406453714    6.18938833082194    8.41638217569439
C         6.75116846072195    5.98818879170484    8.86797272363060
H         6.97903634292725    5.11816642788645    9.46667865329118
C         7.73317996636383    6.89974830734657    8.55152038137636
H         8.73271632905237    6.72105782593270    8.91837825250849
C         7.46426467405169    8.03302871694819    7.78186744654401
C         6.15723341346417    8.21895620488906    7.33968009611075
H         5.89769186449967    9.07979317998400    6.74511267445566
C         5.15731131672167    7.31784001643281    7.64548628821828
H         4.14628917839753    7.48311333196215    7.30364613222665
C         8.59041547101531    9.00247302586888    7.46184607284976
C         9.13809635151950    9.58549157946509    8.77236463748578
H         9.96449940039157   10.26188541258281    8.56434327865960
H         9.49648237068801    8.80300476477971    9.43595457764505
H         8.36003777929990   10.14485264025860    9.28835557029916
C         9.70553096891294    8.24729259208091    6.72389493525954
H        10.50560993403382    8.93324159325764    6.45399949983788
H         9.31587100264645    7.79646873894980    5.81342155475821
H        10.12856698441607    7.45921729462269    7.34038457323190
C         8.13659833972110   10.16533466877494    6.57510527132080
H         8.98332397907354   10.81862065094896    6.37435814587096
H         7.36765067475369   10.75738416528948    7.06597481033575
H         7.75695922672697    9.80547900526528    5.62147507492738
C         4.71493349707709    6.90001194680048   12.31285786664074
C         5.40019062650688    7.73264442973698   11.44486320522161
H         4.93445482048133    8.00999024668378   10.51133969565809
C         6.65640752990921    8.20045641722146   11.78747587390040
H         7.19458185689925    8.84636378429068   11.10899644715735
C         7.22274930188283    7.84038312441794   12.99902588112930
H         8.20385598205779    8.20684487129576   13.26628342265403
C         6.53122560932831    7.01652498227417   13.87379783030941
H         6.97152964824206    6.74656870917301   14.82360100036848
C         5.27755511450613    6.54561799661015   13.52988589269667
H         4.71837303396593    5.90105824126797   14.19511742927617
C         2.03988175548672    6.50179544899662   13.32399848847360
C         1.75227546104988    7.81212802625756   13.67979969974672
H         2.19895049046820    8.61887390027345   13.11417539606100
C         0.89742135369388    8.06483452099355   14.73457544512554
H         0.66487827886818    9.08328404992674   15.01154690577113
C         0.33183087438302    7.00879596459308   15.43320078910094
H        -0.34259894879147    7.20881000012888   16.25369918387967
C         0.62611493953861    5.70219142228526   15.08295548610845
H         0.18360919734116    4.88067263594048   15.62745859433841
C         1.48332777867464    5.44517430747140   14.02738828089305
H         1.71570830718113    4.43015635486489   13.73619629125726
C        -0.18395947257608    7.21165776776192   11.06413923153672
C        -0.89969187658102    6.26123244119920   11.77575788423670
H        -0.69506991932151    5.21106704797699   11.61743119421843
C        -1.86007610995403    6.66690075005625   12.68474790987523
H        -2.41400393179884    5.92912384292923   13.24681232931284
C        -2.10450643605713    8.01618545969598   12.87717874622823
H        -2.85364202130172    8.33261083595461   13.58897942887568
C        -1.38998287037014    8.96491427030914   12.16210348791942
H        -1.58390158654010   10.01719330396016   12.31562349755372
C        -0.42534269646901    8.56358257577518   11.25767727230691
H         0.15029518011764    9.28847514388781   10.69739022400264
C         1.03450098179218    7.70307382620858    8.47320983121578
C         0.03704888887423    7.38518115886512    7.56163991776760
H        -0.63952029623151    6.57188801849134    7.78869238574022
C        -0.06979588554778    8.09491732400500    6.37992457325434
H        -0.84129311036167    7.84473576017005    5.66599599022569
C         0.81657923500343    9.12704564174881    6.11308045869927
H         0.73548050196668    9.68147853224987    5.18888468111582
C         1.80562136313302    9.45102636582767    7.02805627318293
H         2.49203035339991   10.25946094436713    6.81736445742781
C         1.91602323987565    8.73882675138905    8.21004746790485
H         2.68061885365186    8.96795002565212    8.93768578685952
C         5.30662585687238    1.78955231861396    9.68897879474143
C         5.31359643803578    2.14480329804770    8.34365553723789
H         4.39609765019026    2.48671682487739    7.87995585326469
C         6.48075376701923    2.08660807406115    7.60352433226968
H         6.46985378442295    2.37527018359205    6.56242408033754
C         7.65761523510852    1.66506184162991    8.19934875266873
H         8.57231680897998    1.62437316643431    7.62631909232460
C         7.65863750841496    1.29548025255977    9.53485697153812
H         8.57357193363937    0.96000818537117   10.00193474779948
C         6.49264499461384    1.35464698487190   10.27729330234626
H         6.50455312730472    1.06908506488171   11.32035157982106
C         4.27196290439480    2.12645018353923   12.32787487387621
C         3.55242485318148    1.54703846424531   13.36789159344111
H         2.71119316720449    0.90524485838740   13.14556219954834
C         3.90049408782723    1.81337163002229   14.68032797022976
H         3.33372251425211    1.36863609505372   15.48556383385423
C         4.96639534917660    2.65112750448374   14.96243265865415
H         5.23845243451574    2.85443149249213   15.98846758128380
C         5.67483934828282    3.24267255546072   13.92833013365106
H         6.49860728567999    3.90798473435416   14.14465204654667
C         5.31995023652415    2.99827922857379   12.61566369181158
H         5.84426461836318    3.49409277442864   11.80894525552139
C         3.18366323847445    0.14375677066028   10.64349622837519
C         1.83777895327108   -0.14329796241027   10.85590372326797
H         1.13086381188872    0.66758544012932   10.97232132775461
C         1.40785395078703   -1.45574560410157   10.92518284772976
H         0.36227561429026   -1.66626506527270   11.09383443472407
C         2.31119406407562   -2.49382694001916   10.77428660464117
H         1.97534745902672   -3.51936053793226   10.82450093205855
C         3.64961825980813   -2.21323079170217   10.55655015724709
H         4.35924067985271   -3.01963833508288   10.43674653678542
C         4.08750112944737   -0.90284792863644   10.49160224218091
H         5.13314055466597   -0.70000427476302   10.31310180469806
C         1.05035449130163    0.95283781338710    7.93791823437067
C        -0.19716447151153    0.34088711161160    7.90975744948790
H        -1.09190926379641    0.93458027484772    8.02658934710730
C        -0.29405850749945   -1.02877578487507    7.73448148602489
H        -1.26719767787156   -1.49754771489442    7.71799513043458
C         0.84637742390290   -1.79670651701090    7.57522365845688
H         0.76564764490927   -2.86380700752356    7.43028117531896
C         2.09358813622404   -1.19420158074942    7.60947218498546
H         2.98762526574617   -1.78938612536964    7.49496981683127
C         2.19556287589894    0.16937985847586    7.80527043376060
H         3.16930218435593    0.63783704904707    7.86219003624774
C         2.03613107045170    3.30223238142796    6.62245739829373
C         2.18344167624606    4.68270483239615    6.48376725090733
H         1.80654074735854    5.33263511238578    7.26253592894292
C         2.78622112250497    5.21611169238518    5.36225046472233
H         2.88434591349049    6.28757832567588    5.26133651796987
C         3.25804651747739    4.37548452542646    4.36551003276580
H         3.73618464627414    4.78879649726523    3.48943768453488
C         3.10589604293680    3.00556768403590    4.49154979019117
H         3.46096306637421    2.34848478548390    3.71060291870153
C         2.49364646352257    2.46612073579360    5.61137867460463
H         2.36664031924630    1.39626988502281    5.68917990865130
C        -0.45241777817484    3.36518366722661    7.94429859529414
C        -1.30093288022877    3.38979033291854    9.04906843287383
H        -0.93901470813647    3.03417114526099   10.00519541111410
C        -2.58510189440728    3.88790652594775    8.92768474342696
H        -3.23100924599051    3.92197324145018    9.79295308566513
C        -3.03890299066541    4.35235001885593    7.70356259761874
H        -4.03851389102031    4.75232329818480    7.61103994303133
C        -2.20707753529828    4.30442486621435    6.59730974611162
H        -2.55996816213945    4.65769728117761    5.63856121180216
C        -0.91753240819620    3.81415683073154    6.71217221583171
H        -0.27553296628669    3.78907006961958    5.84295363425941

