52
CSD_code = RIZTIF | q = 0 | S = 0 | Stoichiometry = C23H22ClF3N2Pt | MND = 4
Pt        0.32125514475872    1.13591956121858   14.26469000289828
Cl        2.65072294276602    4.37931448289679   10.43786757967970
F         0.80759375744032   -3.62073506149410   18.09189534031713
F         5.69201223232536    0.61760670609010   11.36759378171143
F        -0.56778538359430    0.65307327539493   11.62822988923784
N        -0.08049709621363    2.84653384884949   13.18300208270801
N        -1.67260090569615    1.70149280965473   15.17756588064678
C         0.65725096252008   -0.40936516176157   15.47595105809051
C         1.33350554562689   -0.32190145154080   16.69513222124353
H         1.83468467465226    0.59938359364781   16.96650472847433
C         1.39300807775061   -1.39000891826156   17.57564644104885
H         1.91599578773017   -1.31770392260826   18.51731847458800
C         0.76663578008749   -2.57093155746071   17.22951321922223
C         0.09824323082717   -2.71330836061209   16.02908679423043
H        -0.37210197552228   -3.65441223393031   15.78600901264320
C         0.05479697829698   -1.63302180053085   15.16351964740884
H        -0.46121086711020   -1.74888579783126   14.21486681891331
C         2.13348275695229    0.83933668677943   13.47110458001742
C         3.05186671475601    1.89227674348828   13.48765666399228
H         2.83545125874726    2.79662714114341   14.04727952890456
C         4.25140993393302    1.82500154193329   12.79838794907063
H         4.95465070767431    2.64410989571695   12.80612446296626
C         4.53686187547799    0.68116595852346   12.08063280136838
C         3.67544051926999   -0.39799899074057   12.06353485404728
H         3.94082182737048   -1.28469838244536   11.50830988554384
C         2.48489244558998   -0.31201680859024   12.76455834811091
H         1.81543729756127   -1.16200290317212   12.75653404704384
C        -2.04778102424129    2.96073226232147   14.52544817251855
H        -2.65784886934379    3.59003146513411   15.18875525897076
H        -2.63730401058913    2.73518139068205   13.63190140973350
C        -0.79121035709575    3.71947136829873   14.07678873267562
H        -1.06475978265056    4.67252222410930   13.59966564430441
H        -0.15668248996994    3.93505663978433   14.94585824777566
C         0.36357674257809    3.27648400729135   12.06828911469680
H         0.31128361848875    4.33787670709855   11.80785340650020
C         0.93851821309673    2.39404204951262   11.06759297826662
C         1.97706589046818    2.80910665236238   10.22629271772873
C         2.50711954818200    1.97698008240133    9.25651960339981
H         3.32107865033113    2.32546122245706    8.64128437698889
C         1.99435023965297    0.70230615171729    9.09160343611457
H         2.40758452502975    0.05332167609490    8.33650406366564
C         0.95779253487189    0.25686834380427    9.89484142089666
H         0.54409492856919   -0.73207064999349    9.78407818948465
C         0.45761382817552    1.09462778914957   10.86855896018776
C        -1.50192947826137    1.90310128504952   16.61362172362488
H        -1.17494156331971    0.97321850761922   17.07695435180082
H        -2.44230876276915    2.22373610563271   17.08413490561234
H        -0.74107588342387    2.66023495963928   16.80078052260433
C        -2.67333489517272    0.66663316885668   14.93914135813416
H        -2.37293310138154   -0.24660353040765   15.45147785211622
H        -2.73719341457701    0.45688853022271   13.87112622771299
H        -3.66339931061927    0.96854069680860   15.30771123037560

