82
CSD_code = RIZVAY | q = 1 | S = 0 | Stoichiometry = C36H39ClN3P2Ru(1+) | MND = 6
Ru        3.34415831422492    8.27258619581568   15.37091420515862
Cl        4.24679108302316   10.33118225377398   14.60171198985495
P         2.07767686515327    9.09275541588467   17.16059342942869
P         5.27856668676536    7.83981932708725   16.58774581204792
N         1.71134201756457    8.83200966453671   13.96598701695093
H         2.19425576484579    9.61199155048473   13.50537098538111
H         0.89652539355999    9.23932119468505   14.42463186409431
H         1.37759440948487    8.19221226155501   13.24685620321379
N         4.32401249204036    7.61045024678145   13.47333515439572
H         4.75915197900451    8.50399526371049   13.21532337106605
H         3.73446404967224    7.32398068208455   12.69243527108858
H         5.08182283033906    6.93305828780862   13.56065216453386
N         2.59022007561547    6.16061845659223   15.47586085933562
H         1.82091104814505    6.03591822299374   16.13371244283343
H         3.34081454121772    5.53375377659878   15.76077475362787
H         2.26136222369271    5.85495468091282   14.56102552837526
C         0.95712549815038    7.81881525626918   17.86026927845144
C         0.10057267462845    7.19126496784807   16.95264877303241
H         0.10821915097977    7.50881082369737   15.91562159679023
C        -0.78130250568176    6.21158229944055   17.36995418941606
H        -1.44673617583766    5.74366687558104   16.65943805085000
C        -0.81593006396876    5.83894859708213   18.70496274666660
H        -1.50230575711904    5.07494535454152   19.03517188264172
C         0.02127754111224    6.46347999197399   19.61350961436785
H        -0.01598595250805    6.19003123795647   20.65705743220878
C         0.90205873156733    7.44964997047997   19.19858848539588
H         1.53279908380542    7.93983576475147   19.92430383311900
C         0.83338254234004   10.35627790388619   16.69912815214239
C         1.20143476950716   11.36573869148231   15.81044393906103
H         2.19925606393538   11.36742850682489   15.39264091857453
C         0.30600612744016   12.36703470918079   15.47820645802785
H         0.60345028745786   13.14597290101766   14.79240363363679
C        -0.96493256614456   12.37191087360624   16.02964737893549
H        -1.66532454197160   13.15085300509029   15.77043433637301
C        -1.33158939216125   11.37953719269428   16.92452773123705
H        -2.31623570018980   11.38767093594195   17.36702531296061
C        -0.43929767611646   10.37831092483141   17.26502845861833
H        -0.73393107885307    9.62043265755740   17.97576855684689
C         2.79282787913727    9.86499410073049   18.65389796884283
C         3.59750167000137    9.10287052975387   19.50052211301088
H         3.80890488360161    8.07078890161040   19.26008679881547
C         4.13805896020088    9.65799774799930   20.64449407325952
H         4.74838207801093    9.05118503375276   21.29637226713844
C         3.90612884472037   10.98987495502419   20.94594186408192
H         4.33198153695172   11.42504080991441   21.83680153235438
C         3.13161768587692   11.76054507590155   20.09654357551387
H         2.95504022041754   12.80156704656743   20.32128858100625
C         2.57436069115292   11.20500373989107   18.95797029929089
H         1.97141649927373   11.82093583719085   18.30815795710811
C         5.99132356026761    9.05113471417906   17.75807171367070
C         6.90723503996462    8.66426622986783   18.73204943228636
H         7.17810951977537    7.62584695381463   18.84977031259804
C         7.46979811015379    9.61182784789270   19.56768495365154
H         8.17918876012438    9.30333901260560   20.32111970845025
C         7.13069754873706   10.94857074368104   19.44020255606060
H         7.57574588004987   11.68341724244612   20.09349339268127
C         6.21884599080188   11.33799096600709   18.47399740524276
H         5.94852022459947   12.37768340959543   18.36902861260299
C         5.64822650143361   10.39457152347059   17.64030364514169
H         4.92822153365009   10.69966061156726   16.89589016431161
C         6.68608124443992    7.63367345304554   15.44276361142057
C         6.88749826034952    6.41873017341048   14.78451853991819
H         6.26506381098381    5.56468238895322   15.02878895169231
C         7.89952367968381    6.28996331581733   13.84986915749469
H         8.05959814419360    5.34197157327423   13.35740010469753
C         8.70656233237329    7.37599434642831   13.54786664617987
H         9.49580184018352    7.27384796298041   12.81924324223704
C         8.49796471883875    8.58966266331073   14.18229915157957
H         9.12243756788727    9.43720516618938   13.94477073359408
C         7.49126397360696    8.72206773399252   15.12306482880030
H         7.32617250439943    9.67092850210794   15.61269109593120
C         5.33203719701753    6.28422527027192   17.54979288703969
C         6.50070829885206    5.55173692884756   17.74698950304799
H         7.42622169787354    5.87195828176641   17.28977247861963
C         6.48098433104086    4.40647493035778   18.52360233382844
H         7.39245733043854    3.84729322285126   18.67161280794782
C         5.30266953590656    3.97864079091404   19.11436398480792
H         5.29545375070342    3.08639824505712   19.72095745382879
C         4.13559368038974    4.69997746828423   18.92384425263787
H         3.21307304394606    4.37584856654627   19.38261328713884
C         4.15260265618610    5.84251318374232   18.14412486900495
H         3.24311594678186    6.41368587529371   17.99564934074552

