77
CSD_code = RIZVAZ | q = 0 | S = 0 | Stoichiometry = C22H48O4P2Ru | MND = 6
C         5.92902019972322    6.48758622994588   13.29218164210645
C         6.63355582446225    6.81894994748039   14.59194191459416
H         6.68904718100974    7.89692715102932   14.71772936475538
H         7.62648726440158    6.37760684341454   14.59681345697475
H         6.05892336654732    6.39838669909172   15.41558246667854
C         3.86861889881954    3.47943227093601   12.21370211510478
C         3.80757931081937    2.05477202688659   12.72589747247524
H         3.58671212411683    1.37673893324454   11.90591846792210
H         3.05522403810222    1.97529134252050   13.50619115956111
H         4.77677384408675    1.79523462571769   13.14867190889670
C         6.56563266059737    8.20925200982539    9.68585967427915
H         7.17696109807299    8.27741085172000    8.78042338801129
C         5.40984836894888    9.19765232750853    9.59969118040110
H         4.77254968501293    8.99729700105127    8.74182085619853
H         5.78464902778190   10.21744659782556    9.51861768937811
H         4.81737392491097    9.11176974478587   10.50591733931494
C         7.42644908738556    8.56325280132673   10.89497520739094
H         6.84832186396830    8.44276642449396   11.80788333413664
H         7.73732279161208    9.60584721604944   10.82769023745360
H         8.32274659143363    7.95144443135690   10.95767046944868
C         7.46462099032156    5.48968473243816    9.93006429703756
H         7.83674217417540    5.85764226861551   10.89550997266399
C         7.23806808789743    3.98794312921171   10.10286300366863
H         6.34503384022304    3.79891610123790   10.69394699252637
H         8.08720722421328    3.54827515876326   10.62495664125683
H         7.13301594015697    3.48257334931792    9.14732617776343
C         8.53980607370016    5.73488778820842    8.87361153095369
H         8.25340700150434    5.30384189898512    7.91779310304283
H         9.46201677774002    5.24736828932001    9.19002258540261
H         8.75262056217310    6.79143339708268    8.73522512462621
C         5.23192241256821    6.24220201766283    8.01417169151306
H         4.20707884739585    6.62703110944513    8.08887560624205
C         5.14736463119019    4.74851248386971    7.70775874146285
H         6.11532360903287    4.36869509025655    7.39195911924188
H         4.43890857907423    4.56400143169157    6.90124559766637
H         4.82675962514105    4.20209035962390    8.59450414744852
C         5.93130458516066    6.97905834832453    6.87433617263058
H         5.85309472118074    8.05765272278492    6.97551129382336
H         5.45138288215733    6.69970552820158    5.93639113385657
H         6.98086165939040    6.71227458454797    6.80231413453151
C         1.27562985474473    6.27187806548674   12.61420253616214
H         1.32348822824732    5.19644825784207   12.83121147281952
C         1.98172356751426    6.97371395260360   13.77392980325064
H         3.05915490382268    6.84454044438232   13.70277775310278
H         1.65163587292154    6.54102584971880   14.71776445955352
H         1.76220109121231    8.03704374995330   13.79701551418047
C        -0.19240293673939    6.69035189662531   12.56927071839942
H        -0.28816265188944    7.76585865929118   12.44474449893965
H        -0.66295446613888    6.42669780000882   13.51656634328870
H        -0.74174805044068    6.19237818348696   11.77490732316621
C         1.98649778550716    8.06465799154220   10.26826139264020
H         2.76103690353735    8.09841287007141    9.49179784162541
C         2.33993813499723    9.10959511249551   11.32438016157592
H         1.49592866865946    9.28316576074564   11.98655550328775
H         2.59260060252067   10.05844558075687   10.85288832926253
H         3.18901039265637    8.76977790689558   11.91725009538035
C         0.64811091940285    8.40105630891733    9.61495804160359
H         0.45423350140452    7.78639176493153    8.74065237065766
H         0.67448151729253    9.44067061015139    9.28846643225917
H        -0.18060107299107    8.29157500608100   10.30720002561389
C         1.11466457322244    5.31663268638790    9.90762415470112
H         0.15625604438571    5.83957779586782    9.82890093261502
C         1.74953550471259    5.19882057025107    8.52801638618230
H         1.92503797578943    6.17480246960916    8.08199553651323
H         1.10769513789813    4.62580905177716    7.85965958864431
H         2.69995722737064    4.68304049418209    8.63098952117595
C         0.87160135717810    3.91478042842500   10.45915846721744
H         1.82017613192288    3.40176529326207   10.59706634442914
H         0.27881931759291    3.34141201360004    9.74638279719230
H         0.33415505071707    3.92954555962029   11.40388492936707
O         5.08570589510636    7.29611483404262   12.82498231259206
O         6.19716239022503    5.43057738880300   12.68462484815477
O         4.11165191602313    3.68678058908548   10.99678346825875
O         3.66159295022649    4.43489530675630   12.99004250347214
P         5.86774687590765    6.46871107562868    9.76551379147659
P         2.23506227556173    6.35401901955062   10.99921431297859
Ru        4.44033923370879    5.75837438536315   11.46749307581751

