27
CSD_code = RIZVEB | q = 1 | S = 0 | Stoichiometry = C14H10AuN2(1+) | MND = 2
Au        0.57441220203041    5.48351735973294    9.45233439386750
C         1.35921840158991    5.75694001272998    7.72954588088021
N         1.84624337764053    5.90648352640698    6.69111026861446
C         2.41555405452972    6.07095428424615    5.47493842658317
C         2.33616073291333    7.31197227954255    4.84162393841409
C         2.92373059990635    7.46539496985569    3.60098909259755
C         3.57973202315771    6.40022692266334    3.00047972402233
C         3.65316375370525    5.17008567208038    3.63843758547714
C         3.07308540515936    4.99339262420956    4.87926759103449
C        -0.19643911968760    5.19421667790514   11.17884256746720
N        -0.65101573871569    5.00332034521294   12.22523842917803
C        -1.17528187749013    4.77608356108532   13.45151715850895
C        -2.54920214516016    4.56922765034577   13.58257704066253
C        -3.07052801560781    4.33442010180573   14.83993608659680
C        -2.23724448990425    4.30620442944169   15.94915603799307
C        -0.87247303354550    4.51393137063273   15.80845070886136
C        -0.32889738954223    4.75053953431754   14.56105685680646
H         1.82248114508627    8.13006475370799    5.32260970216806
H         2.86974932359249    8.41951736145125    3.10096416999802
H         4.03566816874816    6.52912683691309    2.03145822743527
H         4.16436310034592    4.34515539888617    3.16782351742733
H         3.12089860758209    4.04373904223416    5.38960115098782
H        -3.18312405576103    4.59415981199781   12.70965132884156
H        -4.13066488498216    4.17254312022798   14.95471418089697
H        -2.65295797030164    4.12153580129363   16.92719176868525
H        -0.22881459125697    4.49124786117425   16.67359197071213
H         0.73018241596749    4.91379868989839   14.43369219528195

