45
CSD_code = RIZVIF | q = 1 | S = 0 | Stoichiometry = C20H22AuN2(1+) | MND = 2
Au        7.09404191711221    1.73404114696534    5.87837170745329
N         5.50938041539765    1.72780649154992    8.50941477888923
N         8.66899227720183    1.72292976375405    3.24149690890205
C         6.11192514253210    1.73592903152950    7.52058107212933
C         8.07346439980630    1.72773630732407    4.23459281891289
C         4.80751606081343    1.72083004251515    9.65882091231285
C         3.91002214362285    0.66752301712377    9.89920006655493
C         3.19952421665807    0.68618119465497   11.08552104991565
C         3.35860149148608    1.70666743004947   12.01724292127144
C         4.25915852350481    2.73521095790039   11.74586894889363
C         4.99521497383981    2.76813690135197   10.57804729396104
C         3.74385031265565   -0.42670496205535    8.89446336788409
C         2.58120827724064    1.71574563484554   13.29008746467979
C         5.96286918932013    3.86814804743250   10.28099449636056
C         9.36348290214532    1.71862648351446    2.08761319673645
C        10.24466373072518    0.65379503345352    1.82886589618051
C        10.94640485917186    0.67709689815819    0.63996912066729
C        10.79655313231655    1.71290283400786   -0.28051157236932
C         9.91426582458915    2.74887981414452    0.00764814748464
C         9.18518473466728    2.77766004566168    1.18253162916753
C        10.40016438891096   -0.45410411523440    2.82037295002957
C        11.57708427817613    1.69636590594992   -1.55136328988753
C         8.23603444413480    3.88859661208714    1.49761599678181
H         2.50428967825773   -0.11402004354494   11.28944000800463
H         4.38484756684463    3.52802679808153   12.46779662049260
H         3.41307998410050   -0.02371678426355    7.93709094224695
H         4.68939956255239   -0.94331494021177    8.72855045197726
H         3.01042647357431   -1.15021657730908    9.23702016222455
H         1.95837060304696    0.83061684053570   13.37976961052418
H         3.25515351736262    1.76009218657141   14.14408899025208
H         1.94301910250768    2.59749837835620   13.33228405337225
H         5.97939146248411    4.58983147886501   11.09199293940815
H         6.96935447145423    3.47027347355709   10.15002601922913
H         5.68773967874656    4.38530331266209    9.36160304297286
H        11.62964637771323   -0.12879096293521    0.41802762203881
H         9.79231260303146    3.55373161704819   -0.70130162931491
H        11.11578261358591   -1.18784324266305    2.46216564491982
H        10.74915267217410   -0.06763623027130    3.77812658812479
H         9.44658663823802   -0.95405264543132    2.99133679279778
H        11.36039079210772    2.56899824802157   -2.16042533134422
H        12.64452277949940    1.67455462858710   -1.33672105017392
H        11.34175220264247    0.80117330082808   -2.12524103268461
H         7.22770140450741    3.50274726872645    1.64844334045702
H         8.53517219429081    4.40252603713690    2.41135210487343
H         8.21239998524363    4.61071734098623    0.68722822669554

