57
CSD_code = ROBBAM | q = 0 | S = 0 | Stoichiometry = C25H26Cl3N2Rh | MND = 6
Rh        1.95021929167386    2.66921581815311   13.48311143178939
Cl        0.14890527452599    1.75399608154639   12.44774383268753
Cl        4.03058335615192   -2.41212241147296   12.06142514737046
Cl        4.65172121996555   -0.21648541557136    9.34159392048431
N         3.08748157826383   -0.01202022346020   12.87754257583827
N         3.46311099191442    1.33135472492268   11.22844869412078
C         2.95563372873028    1.27015420414918   12.47791008408384
C         3.68616361721491   -0.75475103879837   11.88946368823492
C         3.92215383026905    0.09164660993818   10.84766049988865
C         2.64703486072150   -0.51435027252435   14.15237099095902
H         2.03630518153085   -1.40796360104231   13.99235338891802
H         2.00177791380919    0.27396687268119   14.58044979998407
C         3.78023704181273   -0.82473490372029   15.09710633194884
C         5.05764647630364   -0.31864911955525   14.90032934890981
H         5.27090071543318    0.29707378980069   14.03800695695834
C         6.06937415301527   -0.60161519432026   15.80206954252916
H         7.05935057517502   -0.20298152601401   15.63635325784719
C         5.81494064556622   -1.38952431118236   16.91043118327991
H         6.60491998628872   -1.60888723713099   17.61284372041523
C         4.54227618172164   -1.89693901923104   17.11325840032585
H         4.33687999070439   -2.51437426229183   17.97500339915698
C         3.53237962319105   -1.61720105382157   16.21139757507183
H         2.54038043283252   -2.01454501248906   16.37012435400358
C         3.43442846608855    2.50963198717045   10.38878127164684
H         4.45839934962406    2.85103772444418   10.20341931666032
H         2.89009033644021    3.27232568346568   10.96790872080111
C         2.72481255832774    2.24685888090079    9.08519679042506
C         1.44351146695304    1.70930828533377    9.09699203429445
H         0.95689916238381    1.50553107070181   10.03997897106996
C         0.79067215512106    1.45139883391567    7.90531237877147
H        -0.20413544289941    1.03239086002110    7.92204994908731
C         1.40702222353150    1.73250066259127    6.69714103680095
H         0.89609696494885    1.52995263506295    5.76731507642118
C         2.67946829017183    2.27732074032679    6.68277695876514
H         3.16342932844409    2.50128491935127    5.74334559195021
C         3.33804894530252    2.53095069740599    7.87326608790030
H         4.33470017716791    2.94996922128355    7.85890098660606
C         3.42893459026059    3.07870529681417   14.96188205248747
H         4.07065977843702    2.20802194863147   15.08931805215472
C         3.65243084395732    3.87540782220731   13.83758996561917
H         4.47996878129387    3.59356948663757   13.18534201677215
C         3.30071739258846    5.34304897966253   13.74181493289001
H         3.40006677799388    5.64652940958281   12.69612638029387
H         4.02738615978274    5.92843859221633   14.31662171701736
C         1.87132546406862    5.66084807341317   14.22070765732316
H         1.87387678673599    5.92483570369312   15.27906006812805
H         1.50225194690596    6.52994514260677   13.67252336314411
C         0.92183265650930    4.50266561967559   14.00465905926653
H         0.17818200103957    4.65447310589228   13.22128465763023
C         0.65727186438139    3.54546043446443   14.96246908206937
H        -0.29601789624742    3.01904597517476   14.90832358960739
C         1.31946990171451    3.46962671880156   16.31916905109341
H         1.07021177573632    2.50259376494467   16.76419898789444
H         0.89643674685888    4.24250719998837   16.97010070534647
C         2.85258774615806    3.61024782187071   16.25757275665435
H         3.14508263642562    4.65434368276994   16.37679033306200
H         3.28860339698082    3.05645952041344   17.09176227552627

