62
CSD_code = ROBFOG | q = 0 | S = 0 | Stoichiometry = C30H21N2O7PW | MND = 6
C        10.92965523501853    6.78927589957200    4.57525069054175
C         9.46983640437614    8.99298788116806    3.55982167154817
C         8.81209465350343    6.33938856573978    2.84131537128427
C         7.06387716416260    7.82062499804143    4.48999069049319
C         8.62131932109238    5.61806361876091    5.53740988934736
C         9.09544603141594   10.45611164510018    6.59330951715317
H         9.88597450631654   10.94403791313420    6.01984720202343
H         8.14492598285348   10.69619680889384    6.10812387788050
C         9.08415074306445   10.83351731278671    8.08215795079582
H         8.08864649325264   11.16214338324161    8.38305350679610
H         9.78119906742821   11.63553854691284    8.32066378379615
C         9.42992328354089    9.55135381954142    8.87935191196346
C        10.94395553162462    9.21167904745750    8.65456817090275
H        11.29063593656187    8.55354271273677    9.45510310036166
C        11.04275649967301    8.58208763045997    7.27422326183297
H        11.40409566825959    7.55029002999056    7.25411520914503
C        11.89993121673774    9.47978365293654    6.44737518479962
C        11.86272439830427   10.41969783622368    8.56741367448201
C         8.99450334644152    9.69663690205545   10.31465288290261
C         9.88964888066895    9.98447382192125   11.33651090524292
H        10.93806526784189   10.12244135098471   11.12657961246079
C         9.43857079265011   10.12969801563089   12.63790422505451
H        10.14639762263580   10.35366771102864   13.42176792010933
C         8.09484451765584    9.99107331858041   12.93425260820999
H         7.74848599244621   10.09802455557367   13.95116979499817
C         7.19471653045141    9.72474118795293   11.91629813219221
H         6.14181522142869    9.62635187052037   12.13384961586167
C         7.63934082870187    9.58620566324689   10.61559831931658
H         6.93005228304367    9.38089124381290    9.82785555588837
C         8.19161405733317    7.32125913033435    8.69389993387072
C         8.71356971988067    6.73020877118284    9.83825116798669
H         9.53371237524805    7.19025140082753   10.36760046004224
C         8.17239136040966    5.54698309001419   10.30949399922941
H         8.58292654833789    5.09722011746010   11.20129387025775
C         7.12472995981783    4.93597524724494    9.64374577414875
H         6.71335430586445    4.00970701672791   10.01411319267874
C         6.60631453212253    5.52022415263973    8.49957398303755
H         5.78758681151185    5.05304453284488    7.97343545200573
C         7.13057676060673    6.70854642584819    8.03155760726980
H         6.72345781816775    7.18837568868552    7.15080933176536
C        13.15043412999199   11.58050203809495    6.80353960282384
C        12.86545329455894   12.88727316325688    7.17525418573876
H        12.02912418356044   13.09870423036640    7.82281840960122
C        13.67130534473845   13.91493778891866    6.71955436307140
H        13.45356281539502   14.93081943072537    7.01248910339088
C        14.74537278352104   13.64469948682725    5.88879479237494
H        15.36838823178772   14.45084364621935    5.53211352686800
C        15.01922780568250   12.33961893029555    5.51590196127995
H        15.85515238708644   12.12453909123030    4.86787518285660
C        14.22851772418638   11.30172207963180    5.97472349318531
H        14.43887388552317   10.28429857402226    5.68629668555237
N         8.66184590807665    8.52883708433311    8.15231326295432
N        12.32739568465497   10.51698815632513    7.26481103661199
O        12.00570540503746    6.41884416800693    4.55966836960429
O         9.75199456814653    9.93808461614101    2.99152983532178
O         8.70895056218546    5.77787823935180    1.85291546623295
O         5.95835587881305    8.09938827493824    4.42463673318275
O         8.47719697653898    4.60645894320959    6.04500184934605
O        12.11874669133173    9.37142250642514    5.26868652790137
O        12.16927710801327   11.16481610881145    9.45978335035557
P         9.29596723572996    8.62101687551755    6.58725436740015
W         8.99842772502423    7.32048404947468    4.55602888456492

