76
CSD_code = ROBFAR | q = 0 | S = 0 | Stoichiometry = C32H37ClN4OPt | MND = 4
Pt        4.84309785447702    1.04908176556541    8.34475839008040
Cl        5.06705458432876   -0.91055571032916    9.52711437808922
O         4.38668493086698    6.15288525535526    5.12940146067106
N         4.49603077192806    4.47514185395213   10.54457643612904
N         4.69784213373831    2.36395728409825    9.86542787564188
N         4.91797459967953    0.32800187884324    6.46308645886839
N         4.79276655716824    0.71221891411650    4.27348447709873
C         4.67392150051696    2.35734351083517   11.23323293303264
C         5.18845920963762   -2.16658144502644    6.32624109138715
H         5.23742783240214   -2.33188738807750    7.39104712889895
C         4.75473332987742    1.30784994140847   12.14436012162827
H         4.86160163262013    0.29344136434080   11.79356045616413
C         4.69272386541130    1.62673605138972   13.48319957927892
H         4.75158654457644    0.83949174450626   14.21907837019870
C         4.55394498567077    2.94745414171255   13.91721893357969
H         4.50654210119243    3.15072348750815   14.97662110619014
C         4.47357221915943    3.99908437395461   13.02680260145642
H         4.36210259621608    5.01453383859171   13.37624749105187
C         4.53701341503594    3.69111697368517   11.67535229271695
C         4.29995166289078    7.42951151411704    5.72235920778879
H         5.17213603432907    7.61099680560981    6.36788444084373
H         3.38876078600660    7.50643320182639    6.33410542651087
C         4.58076754394495    3.64300150355633    9.47022105209187
C         4.56200143324814    3.90618254215919    8.04455894680756
C         4.45686510972181    5.09941209641709    7.32504073019867
H         4.36901335828054    6.05064317987178    7.82027902942206
C         4.46998513773999    5.04875937060956    5.93419804022440
C         4.57317817639584    3.83988505860124    5.23693563146099
H         4.58230626754943    3.90418092587408    4.16205034542936
C         4.66648504909671    2.64902886591273    5.94588796260275
C         4.66694527749274    2.69923563078049    7.34720320994534
C         4.78889121762396    1.26990543745908    5.51334369598755
C         5.02934839589282   -0.87725425181603    5.82553641762630
C         4.96017109819617   -0.64406856312015    4.43471169641128
C         5.05402304366355   -1.68658956339958    3.52346791705194
H         5.01029162217594   -1.51777652715782    2.45810690818703
C         5.21306085339203   -2.95816698670526    4.03577539201400
H         5.29110284143289   -3.79334253536482    3.35582788492783
C         5.27760679856866   -3.19301698960748    5.41177799386448
H         5.40250856830915   -4.20605221297592    5.76239081672874
C         4.31603992414519    5.90268817928881   10.53518397517735
H         4.98609627190319    6.34061823032551    9.79044640240611
H         4.61223184328937    6.28543042599993   11.51462261655739
C         2.86159228599015    6.28383513884245   10.24277749457390
H         2.53859934439559    5.78357043468438    9.32709443966303
H         2.22888589031641    5.92177202621842   11.05590083141752
C         2.69178335799524    7.79309187463524   10.09020204674325
H         3.34418840167760    8.15393882043110    9.29046016187516
H         2.99904982162861    8.28877444725798   11.01366224206744
C         1.24912617511266    8.16312424663506    9.76949572144049
H         0.93141970489370    7.69159035257977    8.84205156030935
H         1.14581639712834    9.24004282159139    9.66137969462952
H         0.58519946332640    7.83227106765753   10.56463809506607
C         4.26241355311532    8.46410890903645    4.60304684300156
H         3.40427701863829    8.25453084913330    3.96255744573413
H         5.16376368500552    8.35433126400600    3.99778378930773
C         4.17192999033090    9.88565262239229    5.15000175934587
H         5.02811878294602   10.07790581834515    5.80094011259466
H         3.26731636545497    9.98420026895129    5.75467782550494
C         4.14731290062979   10.91660291541247    4.02872351838716
H         3.28807148878133   10.75599829659560    3.38197142675748
H         5.04849390227590   10.84359059505417    3.42450804400020
H         4.08755494040238   11.92268618401471    4.43627384421235
C         4.67814722259203    1.38260898851149    3.00468948679043
H         3.95644995388057    2.19453590049077    3.10515916610895
H         4.28432342548972    0.66370226527052    2.28125107643492
C         6.03527175598132    1.90692754695823    2.52572851664079
H         6.72999994355213    1.06488988725726    2.47768852677533
H         6.42506775731105    2.61660249049055    3.25829161206360
C         5.95653170604908    2.57473583485100    1.15306222395655
H         6.97426769822384    2.77372606891753    0.81129411547065
H         5.49895217948074    1.88466719037576    0.44014950313250
C         5.17754332743164    3.88570012201164    1.16291123790314
H         5.24155232055982    4.36565223779302    0.18920205794352
H         5.58620110595613    4.56820734599434    1.90522370011674
H         4.12582915371934    3.72034199291593    1.38417455760876

