80
CSD_code = ROBFIZ | q = 0 | S = 0 | Stoichiometry = C38H33ClN4O3Pt | MND = 4
Pt        5.16016869916827    8.03253072098059    8.62576178526636
Cl        3.52595464383376    8.37024404852718    7.04407087014026
O        13.52809558406572    4.14216523170652    8.81564350820316
O         6.00388798170793    9.95814877101022   17.66991897590692
O         9.44633931787277    7.24614570467616   12.83275362609276
N         6.49348516614232    6.97375924050476    7.53055518247629
N         8.46175971323628    5.93284820426237    7.43537553417766
N         4.33537862883889    8.98126898053785   10.20845720362994
N         4.45804256065749    9.54820776475659   12.35934040300137
C         6.54001109686483    7.74961046845269    9.95500175102663
C         6.35812854274830    8.24472167076717   11.25185340770699
C         7.36648245507754    8.06253685461672   12.19016163839472
H         7.30646240225655    8.44311936453406   13.19734714861292
C         8.52500104600952    7.36363167645357   11.82708645328593
C         8.70167255673999    6.85549737448828   10.54237171344003
H         9.59471670606365    6.31484239859720   10.27913757571381
C         7.70050773132829    7.06441969038779    9.59336077509948
C         7.60814535806522    6.65962236986902    8.20878474778120
C         5.07415389470548    8.90998122125303   11.32763067753895
C         6.61864800567163    6.43730117977146    6.27675723665639
C         7.85941589749734    5.76840609279495    6.20501928046764
C         8.27916684514270    5.13185112930465    5.04750638445376
H         9.23571118514363    4.63385172501602    4.99668158508103
C         7.42050428378109    5.17047202746240    3.96693137038582
H         7.70973843275531    4.68503762064218    3.04687504999999
C         6.18731576902024    5.82417458712316    4.03303072611150
H         5.55187477545375    5.82625531435111    3.16064438687273
C         5.76598691670578    6.46719118563577    5.17712127076116
H         4.81978863461516    6.98131194042067    5.24000580658189
C         9.74164412737091    5.45425617009699    7.78330880946015
C        10.75628086836512    6.34657925772251    8.12219845222486
H        10.55505880699480    7.40725185554040    8.11872383482601
C        12.00297431532939    5.87221647901360    8.46262200974750
H        12.80076537206330    6.54671570164913    8.73040216036894
C        12.26822954684577    4.49904003149593    8.46017495370243
C        11.25561146569619    3.61288959139464    8.10563849639969
H        11.42824617207284    2.54882504137046    8.08965080982072
C        10.00105238002343    4.09248775246964    7.76991396280646
H         9.21443045155698    3.40282173918347    7.50287742748724
C        13.87663960693619    2.77773885245553    8.79806615207883
H        13.77762424473892    2.35200982573383    7.79475458433375
H        13.27094545993369    2.19965017003107    9.50233652166541
H        14.92058247948221    2.73822991581053    9.10398453158743
C         3.20529451683746    9.69126141567725   10.51401630815044
C         3.27216883413521   10.06059166490722   11.87439288261475
C         2.25313435362098   10.77536393210844   12.48553124447828
H         2.30168713702522   11.03904859758852   13.53109134781766
C         1.17599640211870   11.12674216574469   11.69693874193387
H         0.36323208728388   11.68636016487677   12.13512893413248
C         1.10920605947059   10.77464346383582   10.34612805592471
H         0.24556788321623   11.07380446258489    9.77210630833388
C         2.11085903718383   10.05319609038202    9.73356754649506
H         2.06790459136707    9.76616083435565    8.69462916807066
C         4.87329855008288    9.62357165939925   13.70438139011278
C         5.09347787910174    8.46451746059412   14.43428427870709
H         4.96504391914824    7.50358570646782   13.95928106499024
C         5.47807957827340    8.53417280488636   15.76126009131537
H         5.64699970365349    7.61719551335062   16.30231910994010
C         5.63496624925345    9.77274686309095   16.37747677254071
C         5.40021808680326   10.93598806316401   15.63925640361386
H         5.52554072075068   11.88738626757423   16.13058176563031
C         5.02402844180192   10.86405449169300   14.31654559936876
H         4.85404342694145   11.76521280802559   13.74744371105639
C         6.26552162467609    8.82817869598428   18.46836859083139
H         7.09096329150184    8.23384128733946   18.06433134428027
H         5.37772862711690    8.19666833151464   18.57391240295337
H         6.54713156136365    9.21797910136275   19.44505884596161
C        10.67756518369614    6.60409949406331   12.58188276126494
H        11.32703607245343    6.92890989786475   13.40051851361869
H        11.11561101285110    6.95730388319568   11.63905367991289
C        10.57635666741990    5.07654015940230   12.58496590842177
H         9.84750886589272    4.75382478494072   11.83874733124091
H        10.21012127511759    4.75348288995972   13.56155140039937
C        11.92631998862345    4.42736208743222   12.29446915323127
H        12.64124124401596    4.71771964420859   13.06718260068139
H        12.30648339440982    4.79399308320595   11.33821910472594
C        11.81647657319865    2.90842582192171   12.24785606501118
H        11.13933281774830    2.60068470622328   11.45316318255633
H        11.43216582684084    2.52447499892458   13.19011055322188
H        12.79135838639052    2.46063975923283   12.06910905530163

