63
CSD_code = ROBHEY | q = 0 | S = 0 | Stoichiometry = C30H20F2MoO8P2 | MND = 6
Mo        0.53849789619108    4.41512668064318    1.84245480037390
P         1.32419170421945    2.29466752081679    2.42312386361600
P         0.42225764705530    4.71364444933993    4.16817613795991
F         2.00823089153938    2.00068435209957    3.87621486324120
F        -0.25707688132156    3.45357633192062    4.91369310770058
O         1.70935190945193    4.69096771798142    5.09873131033309
O        -0.49528368519112    5.84930748730744    4.82276947718157
O         2.54757763676998    1.82673332751903    1.51983552869089
O         0.23434255881057    1.14347669911019    2.45705944641059
O         0.66794302651083    3.68120645314848   -1.14795742811002
O        -0.49617195757184    7.24136159909988    1.16190224598664
O         3.52505454022107    5.15455218672304    1.50856030252109
O        -2.34532251930880    3.30141750097111    2.05367332272989
C         2.93022116775010    5.19927743616042    4.69437539776785
C         0.61433152875851    3.97472351964491   -0.04956740888253
C        -0.02529665626441    6.69052228211515    5.82430953704657
C         1.10965758170858    7.47233290584129    5.62194949903339
C         4.02638442566047    4.35014511731436    4.70776450894969
H         3.88417518224669    3.32087371406929    4.99796126310300
C         3.05723273554570    6.54021751360614    4.33521277147303
C         1.53049666999966    8.29555075432624    6.65990045540805
H         2.41471142535359    8.89975679902964    6.51890740203341
C        -1.30076993263972    3.74070549167815    1.96976535192625
C         3.26443665577039   -0.47009434154718    1.81266413483400
C         3.51804922314642    0.89629507885292    1.88395485451394
C         1.07113967676221   -1.12029543592624    2.68823203364390
C         4.31929398977619    7.00387148678005    3.98669122583012
H         4.43787862156113    8.03847572928088    3.70037682124818
C         0.32353413214586   -0.05130919783825    3.17241226749958
C         1.89867938057530   -0.98286790083378    1.43651829456487
H         1.41730365716210   -0.28681494250966    0.74436361092873
H         1.99324149200181   -1.95523155792634    0.95129608866712
C        -0.11407208831190    6.19597142253759    1.40942137620273
C        -0.72771824104175    6.74422372097120    7.01788103405274
H        -1.60199740037995    6.12304429512415    7.13361929908193
C         2.41792233334059    4.94441607841785    1.68990352861008
C         4.75653679303770    1.37935777827896    2.27710855718668
H         4.90466458677294    2.44816669270678    2.32089525084882
C         5.27143376840246    4.83351255792582    4.34814047818739
H         6.12395986892882    4.17164380698692    4.35054943742441
C        -0.39418121335225   -0.14957744125637    4.35366468774505
H        -0.94665627323110    0.71151783473554    4.69701554512140
C         1.06847970809443   -2.30121833178978    3.42078779298516
H         1.64059566539624   -3.14258310978878    3.05876507542608
C         4.29492777346419   -1.34204444751692    2.14274246233899
H         4.11676307050552   -2.40585407169068    2.09109710105284
C         1.85779825596892    7.45352884571099    4.31523666263554
H         2.19613213349004    8.46632768399848    4.08659318972440
H         1.18092825888051    7.14155490719442    3.50927189784230
C         0.34890188159030   -2.41266350680665    4.59608371136625
H         0.36130424039032   -3.34064834365893    5.14726989769850
C         5.41606533631404    6.16101573677529    3.98404583008109
H         6.38388083188663    6.54164215754993    3.69589189786787
C        -0.38160729534212   -1.33431948372698    5.06633655450014
H        -0.93937887827026   -1.41205042678800    5.98660844764775
C        -0.29905726268131    7.58141854963081    8.03148921485974
H        -0.84821950324904    7.62342225175269    8.95935662417291
C         5.76708311937305    0.49326850602996    2.60121626468346
H         6.73186759632634    0.86746910328773    2.90718431433231
C         0.83841420345013    8.35112851350179    7.85531979475271
H         1.18410941914086    8.99758718195441    8.64735670388436
C         5.53478885970722   -0.87020380720362    2.53215210731889
H         6.31993672673343   -1.56691141540358    2.78347017377120

