57
CSD_code = ROBHIC | q = 0 | S = 0 | Stoichiometry = C26H18MoO10P2 | MND = 6
Mo       10.50502251382339    5.95361567691602   10.89145134419347
P         9.39040243529797    8.01619287323630   10.70745990847203
P         8.90236798610910    4.97649123201871    9.47857576708190
O         8.11166459020864    8.21179718303913   11.66253498609723
O        10.37214818390252    9.23077748468006   11.17014128601502
O         9.26102658307079    3.48684075596745    9.01470967002306
O         8.71914990707535    8.64368422371362    9.37016190989213
O         8.73884389571766    5.75811359524806    8.04913452177879
O         7.35858453922532    4.69535893584867    9.86344735579747
O        11.93367775078303    3.23538537145226   11.16193279676538
O        12.16973281426322    6.58258577997022    8.35746789559447
O         8.78273478149462    5.32644094984214   13.38789528543455
O        12.62459271779584    7.28917493113074   12.68871648091658
C         8.56840450077493    2.91267106895803    7.96314553647804
C         9.83299225859165   10.47651539558052   11.41707702715633
C         7.62747357056414    9.48827283543596   11.89919559492099
C        11.40895061166594    4.24049592766410   11.06388015272273
C         8.47452108712801   10.61148071709781   11.78177241519741
C         6.32205652746344    9.63182456274649   12.28994405511028
H         5.69798919199095    8.75706022787756   12.38230735880699
C         7.96963196269268    3.72304795833211    6.97386243654934
C        10.64815365622962   11.57654657827123   11.33768773325857
H        11.68497433005374   11.44625988551817   11.07063184450460
C         8.05086701342573    5.13256764844677    7.02652089915406
C         5.81629891164093   10.90861527977880   12.57212229620144
H         4.78583239200846   11.00298894824070   12.87894299033329
C         7.95856028970771   11.90185713940376   12.07046230181637
C         7.24776796330517    1.69954027125897    5.83260328154169
H         6.73298469901819    1.23023871572346    5.00781006319784
C         8.51233358149842    1.54622201866049    7.87761754923399
H         8.98600921806059    0.95071465111417    8.64141928980278
C         9.41836501336220    5.55036335587606   12.46893481921284
C         7.29770539189829    3.10771813420374    5.88568695749949
C         8.82079144396967   13.01277320244234   11.96967335399406
H         8.42778024682187   13.99501080117863   12.18443452440805
C        10.13212270327498   12.84886977651849   11.61746983263934
H        10.78926312887255   13.70239810826428   11.54987837272231
C         6.60824041910693   12.01749006166914   12.46033854033631
H         6.21393631582405   12.99887447158017   12.67674035409190
C        11.84328618228049    6.79122302970869   12.02683358966869
C         6.71935265058153    3.92954315246163    4.89639892219973
H         6.20464717893392    3.46235493603799    4.07042959841018
C        11.56118568196887    6.35815388898675    9.29551154998695
C         9.51821870501175    8.85594127900872    8.21780392695331
H         8.95623668807109    9.53094879000944    7.57217682901369
H         9.69848073473295    7.91219686375860    7.70033505278554
H        10.47409735499783    9.31561250693355    8.48074376629623
C         6.81481237672250    5.29118731033534    4.97638789107434
H         6.37438786228414    5.91476329654042    4.21322149525469
C         6.54553771745130    5.72573723248821   10.39479493467197
H         6.60078871631696    6.62917963264420    9.78172238816011
H         6.84778529185294    5.96747458455846   11.41594607562734
H         5.52474325867508    5.34329094290579   10.39405661454773
C         7.84625342756291    0.94281779282720    6.80190674901266
H         7.80977484948865   -0.13474357562160    6.75182627145157
C         7.48230230703821    5.90394256944431    6.04570639228376
H         7.56095388831115    6.97839903206608    6.10340916365858

