93
CSD_code = ROBJAU | q = -1 | S = 0 | Stoichiometry = C40H48CuN4(1-) | MND = 4
Cu       10.20630533354760   14.66627859108393   14.98362351237882
N        11.54054284646875   13.42660191458346   14.78416687470781
N        10.08477174536014   14.84259017446824   13.16725119037606
N         8.87063937043900   15.89516105714803   15.18192119142880
N        10.31922280837208   14.51050966836276   16.80238385033904
C        11.75324165714091   12.35204045083576   15.59556482513055
C        12.83315169831831   11.65046814005273   15.11579015943201
H        13.26135889790805   10.75435672739487   15.52468016802788
C        13.29179107853576   12.32767374178175   13.97094917792142
H        14.12561870893422   12.03172245745925   13.36208282415388
C        12.47522900620430   13.41833072249995   13.79206613079729
C        12.52272875044071   14.52110841539323   12.76311671290923
C        11.11238683566929   14.72536964236815   12.27759021190429
C        10.59072285227263   14.79350143286884   11.00745032433569
H        11.11763719432473   14.70900551129331   10.07625819673459
C         9.20186679801798   14.97427195251638   11.13530993081533
H         8.51022091512379   15.07282582171274   10.31939524328736
C         8.91865243517428   14.99931415671314   12.47992714389581
C         7.59305168032628   15.08897100733384   13.19693936072969
C         7.77644222750625   16.00738551363670   14.37580441627126
C         7.00144644749709   17.03869274540920   14.85095981776731
H         6.08544566732282   17.41728347824325   14.43973481352004
C         7.64211016224008   17.55212942910877   15.99218338059014
H         7.26042319845228   18.34635440259320   16.60460544096978
C         8.80182190251976   16.83508303963038   16.16739565505961
C         9.89418550023120   16.94792869590299   17.19739874445744
C        10.21513845937743   15.55210026138510   17.67506294185583
C        10.50463247638856   15.09007161427397   18.93673005035550
H        10.51293315740429   15.65103076528468   19.85273695070932
C        10.79488712552860   13.71887109772249   18.82006258830693
H        11.08217842107259   13.07844866029819   19.63203251035704
C        10.66210511068209   13.38519089579810   17.49314581326245
C        10.85031985542845   12.07661268612221   16.77282494950247
C         9.50474485748719   11.55265291021708   16.22379046063481
H         9.03088285069406   12.34598990429362   15.64526285615224
H         9.70745419535099   10.72012630882043   15.54328342189767
C         8.56625889467874   11.09376116803399   17.33047311145760
H         8.37128601339346   11.93088796794462   18.00444238319366
H         7.61328450805758   10.77471111824963   16.89851065214236
C         9.20641115248822    9.95087480828259   18.10738368014472
H         9.40724109172683    9.11730101023888   17.42827440111475
H         8.52993278782005    9.59261681163352   18.88901386835975
C        10.50929658426810   10.43764494024852   18.72864379220995
H        11.00327368398055    9.61595712753851   19.25764459906884
H        10.27226419432985   11.20956628830752   19.45897249693628
C        11.46126708529325   10.98595863462426   17.66616715899035
H        11.75440007986498   10.15456684236830   17.02126464912462
H        12.36301683702477   11.37713997312476   18.14139537528127
C        13.49498933264882   14.15247789971973   11.63194999416217
H        14.42670114386200   13.81562074919778   12.09183650802460
H        13.08046446771246   13.31870217749230   11.06191119156079
C        13.83147018939789   15.30911487671692   10.69116841098483
H        14.58773093469820   14.97431204924992    9.97357557797713
H        12.94845198192346   15.60884408189234   10.12915277763487
C        14.34176736028435   16.52041477741909   11.46116179860500
H        14.54615681083963   17.34397895995146   10.77064140688394
H        15.27613231378299   16.26953074762691   11.97144531748963
C        13.29820865349747   16.93342315987767   12.49077590360867
H        12.36082660104949   17.17662157116101   11.98557911230699
H        13.63140849340996   17.82055867301690   13.03713928058940
C        13.05843367698908   15.78900583135580   13.46458592911125
H        12.34211957999909   16.09569864120294   14.22702839028267
H        13.99408931338734   15.53516319255998   13.97197707201442
C         7.22865116623421   13.66099642346560   13.66353900441886
H         7.31093115352350   12.98509577694173   12.80697667312042
H         7.95816709635020   13.34090589227432   14.40808410820231
C         5.82565297684513   13.57833979563845   14.24647326685444
H         5.74876315368338   14.26096329255445   15.09564460577431
H         5.63423213655556   12.56330863100627   14.60628957858629
C         4.80641732093893   13.96661421386348   13.18354225857617
H         4.89704163986024   13.28976997853893   12.32916344086282
H         3.78917254633713   13.87832969968707   13.57635389213791
C         5.07039477509499   15.39944574682930   12.73921895199231
H         4.88540244748691   16.05859804543074   13.58548895183451
H         4.37481166386522   15.67918352122515   11.94103578642780
C         6.50076348798661   15.57193772902859   12.22812125023713
H         6.68172702184089   16.62005027114793   11.98081796303452
H         6.59264459950881   14.98918935184347   11.30938761328027
C         9.50152447442397   17.83429328090387   18.39122031627995
H         8.53415310449581   17.50516846145595   18.77633153518192
H        10.24530058038462   17.68052356967917   19.17561713609702
C         9.45753190638113   19.33209208450737   18.08927254849060
H         8.64596455040694   19.55904299188862   17.40031089098533
H         9.26486740712207   19.87407573865791   19.02110021923868
C        10.76169067088670   19.81185841008038   17.46567135287059
H        10.69303071334251   20.87759373249177   17.22823269870062
H        11.58417842804477   19.67724781467435   18.17397012392138
C        11.04004125558679   19.00103281229008   16.20693501743676
H        11.95574303237474   19.35137185714964   15.72195262660666
H        10.21401252402499   19.12203840859179   15.50264480035941
C        11.17980179865265   17.52866167295946   16.56509807150638
H        12.00433273404260   17.39882493405274   17.27260219039785
H        11.41747763954861   16.95373778749104   15.66950644635237

