38
CSD_code = ROBJIB | q = 0 | S = 0 | Stoichiometry = C19H10CrN2O6 | MND = 6
Cr        1.11336050486575    4.03765733276430    2.80660465246221
O         0.70982810132068    0.13689977132294    4.41500691514906
O        -0.36035377035818   -0.64721916885793    2.58090599857180
O         0.23788361142607    5.50760824929389    0.32503822465426
O         3.89632095046337    4.92129930076941    2.03838108246423
O         0.87394321247063    6.75112342123422    4.09403883572662
O        -1.76344264462132    3.49807626534760    3.54665716165460
N         1.70297482338163    2.38166699260120    5.35602446233570
N         1.35849026585646    1.24206017838896    1.49599966542710
C         1.56659599437760    3.06544514934016    4.40784114160989
C         1.59724362014387    1.34263926578569    6.21886699282140
C         1.02880457398693    0.14184366301795    5.73950094023933
C         0.85405706971027   -0.91142250362194    6.62221446694921
C         1.25697668250366   -0.78677444382707    7.94532746000201
C         1.83442580644427    0.38332059110418    8.40420306685220
C         2.00320398380300    1.45215961616558    7.54267854473795
C        -0.08144888457631   -0.91380309829841    3.90600601900856
C         0.62093665129620   -1.01954181653998    1.66982194416974
C         1.45491346336541   -0.04399679810898    1.09989391532938
C         2.39365165497534   -0.41683202526331    0.13544371489474
C         2.50894150662346   -1.73898040791026   -0.24307876506089
C         1.69431159560127   -2.70337740022275    0.32970303127565
C         0.75521733274723   -2.34234741170690    1.28235892229268
C         1.25556593015446    2.31793537377854    1.95657521073232
C         0.56947743386565    4.90809793261859    1.24884175971802
C         2.86837872256287    4.51544831144855    2.35329632612506
C         0.97462305131962    5.69456403214456    3.65090157459076
C        -0.66856909863327    3.67405286811043    3.24910492968555
H         2.43663406155427    2.38011417490606    7.88203933663859
H         2.14627792372332    0.46755154444195    9.43328619166621
H         1.11417192824081   -1.61903936368912    8.61706220981125
H         0.40648539894930   -1.83536469877778    6.29173276685829
H        -1.04512685707068   -0.94918569371242    4.43479756135632
H         0.44769806875941   -1.87786712054386    4.02024288409515
H         0.10711025162019   -3.08461275849357    1.72466806450422
H         1.78479632687138   -3.73665834957228    0.03299245806027
H         3.23751646831640   -2.02032496341605   -0.98775625912343
H         3.02462428396052    0.34428398797745   -0.29752340828756

