56
CSD_code = ROBLUR | q = 1 | S = 0 | Stoichiometry = C21H33CuN(1+) | MND = 5
Cu        0.93278191666961    4.32955008915371   10.78608260000853
N        -0.97106500301983    4.35018621379480   13.23637371272139
C         0.68328715140828    3.81041799192755    8.76999212496295
C        -0.43264863282084    3.92820547504504    9.27187891733044
C        -1.87984625539332    3.91188531018510    9.38034997353733
H        -2.25865103669831    4.79020169473969    9.90697207997887
H        -2.19409750048720    3.01895566612910    9.92860516124303
C        -2.44021247261547    3.87647469033526    7.94537875084993
H        -2.30524246812077    4.85577827471682    7.48392230034583
H        -3.51362571119835    3.69449554423673    8.02155485396076
C        -1.80695054933379    2.79882402827599    7.05283972626991
H        -2.57247916514795    2.48044702975907    6.34425228930097
H        -1.56050199334209    1.92800383953597    7.66229522865362
C        -0.56945588591898    3.23828043067239    6.24068771605244
H        -0.73798214230595    2.95106422856658    5.20222546526277
H        -0.48567064899426    4.32585572544821    6.25596831304555
C         0.77164466253308    2.62212038882317    6.66771323931572
H         0.59818272419456    1.63613963424672    7.10161268984431
H         1.39986688110903    2.48585435288683    5.78572697403397
C         1.57365619426533    3.47964699020558    7.66357924122509
H         2.45237645107509    2.92751054118663    7.99965057915570
H         1.90693010800243    4.39942822472880    7.17573764659689
C         2.69377353064474    4.72455195767452   11.82041080183765
C         2.96340019403202    4.83842474978318   10.62663387865456
C         3.87005208781064    5.15849111284701    9.53070255302828
H         3.37046453994826    5.72081856120216    8.74062665829251
H         4.26579410500027    4.23400327716119    9.10214374983016
C         5.02174905428439    5.99578959990892   10.11642827332598
H         4.64839890304956    6.98734713348349   10.37697679094219
H         5.76028285403248    6.12204875043664    9.32287751103136
C         5.70112362884260    5.36459708952764   11.34149736718096
H         6.75730690959798    5.63236844530609   11.29614030173589
H         5.64906578946745    4.27793858794451   11.26052601724676
C         5.16544110446762    5.81136629417156   12.71900586201018
H         6.02051893387871    6.11243305610345   13.32538075223312
H         4.53515080010618    6.69442474652575   12.60317173198654
C         4.39991620585615    4.74654082563457   13.51838638637098
H         4.54542162042246    4.92496894435774   14.58521447210690
H         4.80694981574525    3.76000334140823   13.29192879521926
C         2.88089969651062    4.73842425428927   13.25975483841818
H         2.42648101269966    3.86829714639282   13.73777480040963
H         2.42361953110373    5.63952922528669   13.67853814004232
C        -0.28254918395962    4.33987697242028   12.31029681866072
C        -1.80463738118202    4.36465275155332   14.36853372347095
C        -0.93552572594519    4.72186795503172   15.57696034353102
H        -0.14976156376983    3.98346127954437   15.71942437224401
H        -1.55327190182962    4.74419632183347   16.46981802625282
H        -0.47931822886133    5.70074953681222   15.44812240859241
C        -2.88826937791807    5.41959004090339   14.13235342517511
H        -2.44564922649733    6.40231912884689   13.98659546371051
H        -3.54380504963260    5.46070419984033   14.99717514004566
H        -3.48535850805421    5.17098130883139   13.25798937707660
C        -2.41224659338777    2.96738264116712   14.51438494591993
H        -3.00536461273861    2.71084972379769   13.63965243760242
H        -3.05773404094288    2.94590870095028   15.38741724953133
H        -1.63381554664657    2.21846597442752   14.64095700258701

