73
CSD_code = ROBMAW | q = 1 | S = 0 | Stoichiometry = C36H28CoN6O2(1+) | MND = 6
Co        1.26608452288228    0.86704668244182   10.50135142568301
O         2.86652645171464    1.74252651092848   10.96643918134499
O         2.25616987934015    0.09724049373049    9.09586778732227
N         0.27760972266008    1.64908466387210   11.88828959990624
N        -0.32768013073803    0.01228795007056   10.02511836148202
N         1.83817990803306   -0.60864975870282   11.58512063574829
N         0.88569991396408    2.33912387644362    9.33397041109639
N         2.58395928433695   -2.63277856530630   12.12916521140339
N         1.06671442566133    4.34883722596924    8.40113751978077
C         3.06684208195984    2.56749101061012   11.93314039834630
C         4.36053097601798    3.12386206297088   12.09550183607765
C         4.63463579222207    4.00533628146012   13.10528732247517
C         3.64260607192155    4.38788393064387   14.01959567768272
C         2.38181785422130    3.87505595521874   13.89813248904627
C         2.05591436114284    2.96447060618004   12.86722673491212
C         0.72945025897508    2.48163098881140   12.77249557724884
C         1.87410692431085   -0.80630246931348    8.26461808780939
C         2.81703951444881   -1.32618557770586    7.34261613730329
C         2.46604356903997   -2.28108341257484    6.42820803681970
C         1.15575157843367   -2.77753760984127    6.36803444640568
C         0.21443476950836   -2.29880777985540    7.23497152289187
C         0.53716604055195   -1.31635597790098    8.19880980146105
C        -0.47889026585291   -0.84104655248734    9.06169903780645
C        -1.14188980944058    1.32926175478623   11.95145982513673
C        -1.55325952967930    0.70579177501210   13.27351717279186
C        -0.68632751465158   -0.07025463155931   14.02843834836138
C        -1.11584991089914   -0.66130119451875   15.20377987944965
C        -2.41824831131978   -0.48512847383641   15.63577185153909
C        -3.28617439398250    0.29800699839945   14.89389144716568
C        -2.85504826111104    0.89351143624861   13.72306518854252
C        -1.53012188343217    0.43120733456730   10.73620801132730
C        -2.39393060643942   -0.74040843060475   11.15659565788462
C        -1.83158160305307   -1.87404093866828   11.73012122909583
C        -2.63516623170563   -2.91741558308654   12.15005339981877
C        -4.00985024420046   -2.83873220238869   12.00223367477990
C        -4.57608596221738   -1.71665507017323   11.42340740116148
C        -3.77146065785305   -0.67318433995916   10.99985454020158
C         1.82528674805594   -1.86518306901335   11.24987630853057
C         3.07139827659330   -1.73116259747148   13.07951886616569
C         2.60318887239346   -0.51391706571807   12.73897978683294
C         2.78974013064797   -3.91608633193306   12.04557082944027
C         1.13151647203265    3.59432234575198    9.56843683067508
C         0.72906226357221    3.44126108636344    7.39300573749630
C         0.61466022104397    2.23276498057742    7.97879134214998
C         1.30150164415413    5.62562208632545    8.29788929901951
H         5.11679570172357    2.82287435764456   11.38799339632683
H         5.62925368580869    4.41328929868853   13.20068436107913
H         3.87822799758044    5.08273244208355   14.80896514023654
H         1.60550990736761    4.15941540413906   14.59343625296132
H         0.02905243252592    2.86297317597420   13.51633911669358
H         3.82108789717490   -0.93600387961770    7.39453432259021
H         3.20775984674426   -2.65855167561697    5.74098282591658
H         0.89876334158449   -3.52976780529052    5.64033487253286
H        -0.79979565480912   -2.66960438438754    7.20260009661448
H        -1.47947571157193   -1.23524265171934    8.88208753941371
H        -1.70287993407748    2.27005155343914   11.85286080318324
H         0.33400394810624   -0.21096739768143   13.70405964119704
H        -0.42956349330420   -1.26198170696064   15.78133670399798
H        -2.75358146763943   -0.95073703502762   16.54910114555931
H        -4.30045482265226    0.44943313947812   15.22868569132614
H        -3.53655556792826    1.50611990523009   13.15127378275064
H        -2.11624263764378    1.05208239662267   10.04241247890469
H        -0.75938865921626   -1.93731261501619   11.85019952164274
H        -2.18729074922072   -3.79190953199192   12.59646426711586
H        -4.63640881002226   -3.65156250596667   12.33413831609213
H        -5.64579098579860   -1.65190266385046   11.29839165704893
H        -4.21918699511932    0.19969556589043   10.54646624196452
H         1.35010336575492   -2.30849369070521   10.39505066094729
H         3.68694002512313   -2.05937868027749   13.89230449233729
H         2.76941335275602    0.42112604224508   13.23824546686637
H         1.39135165845182    4.04252829590184   10.50873883392116
H         0.60151044995032    3.76028460734307    6.37846668058342
H         0.36296866507497    1.29609963467357    7.52068182257540

