110
CSD_code = ROBPED | q = 0 | S = 0 | Stoichiometry = C54H44Cl3N4P2RhS2 | MND = 6
Rh        7.30687256914412    1.59021458427629    7.97175204120160
Cl        6.94027029956209    0.85838590732426   10.16480186551075
Cl        0.72542975911857   -3.53710629458315    4.36573928326190
Cl       15.62497340396301    5.43059498266292    9.07273931832137
S         5.30990468490113    0.68739602662509    7.08951708100038
S         9.36485670226244    2.70511356275641    8.33312227006418
P         6.20096249965922    3.56640288701406    8.41197856614280
P         8.41371609190753   -0.42200764897770    7.74477742323987
N         6.80139598747795    1.71363096402507    5.11395360548089
N         8.77566279374020    2.73068481200690    5.72654851160017
N         5.00780327716612    0.48744886766728    4.43027717438042
N        10.73812541993702    3.74896748047261    6.27360681686212
C         5.68332226480600    0.92146354533298    5.41810841858738
C         9.72286286995856    3.10491138537846    6.69076450072433
C         7.65718036930796    2.08403000117334    6.07355351848898
C         6.99566429179868    1.99537450522796    3.69753754661470
C         7.86469450845830    3.22472289279122    3.52569979384839
C         9.12508226899208    3.03455024616092    4.34509550972712
C         3.98725866966379   -0.43436944725289    4.50444513987898
C         4.12962896459491   -1.64444415231529    5.18786434706184
C         3.13313219155464   -2.59677960259949    5.14318566313784
C         1.97965190301113   -2.34501232807124    4.41845193489120
C         1.82058429532727   -1.15348169108463    3.72887144587092
C         2.82516596550088   -0.20829542260315    3.76504939129626
C        11.83711391735978    4.12291834831620    7.01069430613105
C        12.48446727167036    3.27421343394577    7.91195379002997
C        13.64704861900290    3.67195312465427    8.53949801499237
C        14.17079100891027    4.92792736387407    8.27954854543625
C        13.54743976619874    5.78470282643586    7.38580851373040
C        12.39391208552006    5.37767013075441    6.74892671997355
C         6.17521618349650    4.61088847682487    6.92423420689543
C         7.22686876173872    5.48551246446519    6.66352025680203
C         7.21386601304837    6.26092547060848    5.51840300879196
C         6.16274697194365    6.15604735803110    4.61956262448913
C         5.13988375469673    5.24767868631970    4.85051073475380
C         5.14961620842126    4.46858511550776    5.99309960044830
C         4.44921231745057    3.51524806005363    8.91852556256076
C         3.62920334336154    4.62470307041736    8.72473026408297
C         2.31953337551453    4.60122327989100    9.16422937710277
C         1.81754074359724    3.47874914509636    9.80357424862315
C         2.63277778223251    2.37911300806231   10.00641897635181
C         3.94567724654979    2.39587203210130    9.57006686657379
C         6.86506304124992    4.68086436194119    9.69507812403758
C         7.59860104491340    4.15988724058236   10.75428347108224
C         8.05597582398886    4.99347580092120   11.75914607006530
C         7.77965352685558    6.34889391581833   11.71862325591768
C         7.03802808406788    6.87042371209419   10.67066320241769
C         6.57813728363724    6.04363279888760    9.66356714540910
C         9.61541460338352   -0.94315922647539    9.01630607286532
C        10.03529809381125   -0.10564026705405   10.04104233594867
C        10.98121888381468   -0.54499683282643   10.95113136540715
C        11.51225522072819   -1.81826678286464   10.84601867495538
C        11.09569075769283   -2.65735019205332    9.82429215841312
C        10.15261422704288   -2.22510741102509    8.91233288123629
C         9.45362673418909   -0.41928312039951    6.24958747683473
C         8.88619620026453   -0.63268956858446    4.99478053095267
C         9.66501392534263   -0.53509230956166    3.85612233083947
C        11.00394437358731   -0.18643732521787    3.95536245814880
C        11.56426502841582    0.06084754482120    5.19783502152320
C        10.79428114627405   -0.05938526023503    6.34053635748981
C         7.38941471908013   -1.92323581413204    7.59005708372921
C         6.29787607000662   -2.05082996502823    8.44539660027201
C         5.49996324052219   -3.17872568460388    8.39472429189066
C         5.78681578102481   -4.19307115077941    7.49645791194295
C         6.88206621030227   -4.08014571576672    6.65633344142611
C         7.68467239927048   -2.95377819171002    6.70100201338988
H         7.45579333942125    1.12258051341030    3.22366281352020
H         6.00490176325939    2.13050816266009    3.25940366354530
H         8.11764814362554    3.35958559018089    2.47491337312979
H         7.33010162510832    4.10962104865694    3.87160620931754
H         9.74233331350398    3.93449241970003    4.36547792326487
H         9.73168412769857    2.21291650604986    3.94951217195401
H         5.03220770098510   -1.83888060471213    5.74636019908787
H         3.25128317843073   -3.52994437303005    5.67155902885557
H         0.91856861285701   -0.97191820632386    3.16526133381349
H         2.71615038517337    0.72356166505816    3.23181589001405
H        12.07623110228897    2.29546111239153    8.10845425468041
H        14.14530895561582    3.01132926994718    9.23214118716110
H        13.96807874614838    6.75859766358989    7.18871997746255
H        11.89878722672015    6.03168120806928    6.04759316405006
H         8.04586839973462    5.56373483937960    7.36646382503170
H         8.02327260310948    6.95001857021136    5.32779620085119
H         6.14658636928308    6.77319598350480    3.73327895333986
H         4.33341603671056    5.14815667223494    4.13889222113153
H         4.35687474288480    3.75506904150504    6.17661899614784
H         4.00596156268818    5.50312307391606    8.22025037795154
H         1.68743607160241    5.46312708709680    9.00595300397657
H         0.79205120592660    3.46500429837494   10.14224262391075
H         2.24797902574713    1.50268952089958   10.50576858814173
H         4.58000311119854    1.53774145561727    9.73539824354936
H         7.81025252477632    3.10169565357191   10.79314787678766
H         8.62982850439768    4.58082270947654   12.57526580059458
H         8.13930297362001    7.00048800838736   12.50125065945092
H         6.81687938848320    7.92746544603140   10.63617721761947
H         6.00717427913526    6.46520521386293    8.84855454061522
H         9.62559259679730    0.88819665392367   10.13491386756523
H        11.30107553250393    0.11357626261921   11.74469621333073
H        12.24859070673320   -2.15995424501487   11.55839374940546
H        11.50650845075011   -3.65279298547007    9.73847200792185
H         9.83072681384375   -2.88493830836102    8.11904804778816
H         7.83614882765334   -0.88568712064200    4.91464413021393
H         9.22780953923811   -0.73040551597698    2.88673247266172
H        11.60696562516793   -0.10356626047555    3.06326146204831
H        12.60202254417047    0.34768984390615    5.27774625453963
H        11.23110202060373    0.12091036218454    7.31292115242633
H         6.07353575766551   -1.26119795208060    9.14787816695798
H         4.65052045101281   -3.26202694630032    9.05557856159445
H         5.16209822381551   -5.07297718755276    7.45176348351743
H         7.11504850323023   -4.87193759393497    5.95907416993544
H         8.53688554466622   -2.88427657205071    6.03890887996120

