49
CSD_code = ROBPEE | q = 0 | S = 0 | Stoichiometry = C22H10F12N4Pt | MND = 4
Pt       10.18023485564688    2.32223398199401    9.17432525525169
N        10.84422321460315    3.43304755236753    7.66050989430003
N        12.16312205808680    2.06079492071643    9.34403439270793
C        10.22114726774135    4.42689843493727    7.03725035120358
H         9.35567105961594    4.84597290429058    7.53321041618061
C        10.64674537015033    4.91919925024073    5.81802834083555
H        10.10905156373398    5.72433170949175    5.34670701492874
C        11.75018286694105    4.33012959576621    5.21499065866814
H        12.07711007222433    4.64993090064557    4.23828289023853
C        12.45034605515541    3.35169744936509    5.89519230821065
H        13.33076528878974    2.91290555737117    5.46102261576200
C        12.00120946131652    2.94314942737165    7.14993003554142
C        12.74139742267045    2.15582914349613    8.11148269548660
C        14.07327917575850    1.72684785024481    8.19911129317607
C        14.30583503275362    1.40051446846754    9.53821412034034
H        15.22616524049785    1.06031042909960    9.96694207776939
C        13.11074778018688    1.63119753318916   10.20575688999785
C        15.08844405886887    1.64167476219578    7.12199376786724
C        12.93038224999645    1.65211255430182   11.68173016179404
F        14.64689446406784    0.98037845233693    6.03150052388442
F        15.47930177912795    2.85471047418644    6.66784452482472
F        16.20133483841554    1.01635764746580    7.51818338852986
F        11.80997864173805    2.30274418275871   12.04715911819721
F        12.86188190068811    0.43008336802386   12.25513103367051
F        13.94799785250582    2.27280263503455   12.29603333403587
N         9.51621284412267    1.21163192823245   10.68825077088164
N         8.19735386789897    2.58393444000553    9.00472441809675
C        10.13929149361910    0.21779782531445   11.31152462748185
H        11.00476211927662   -0.20128738567588   10.81556322430138
C         9.71370755082890   -0.27446914806811   12.53076418600082
H        10.25140057670953   -1.07959625310200   13.00209305473912
C         8.61027880655878    0.31461873387103   13.13380224771740
H         8.28336230530869   -0.00516114816640   14.11052096715460
C         7.91010930066177    1.29303382556549   12.45358453948051
H         7.02970014399933    1.73184291404053   12.88775845024734
C         8.35923760412221    1.70155320163825   11.19883212207253
C         7.61905861695869    2.48886464732251   10.23726629427385
C         6.28718147204453    2.91785701795046   10.14964050255430
C         6.05462520979375    3.24418555796693    8.81053720136091
H         5.13429065555767    3.58437964703668    8.38180785624810
C         7.24971616696837    3.01350762642434    8.14299893018481
C         5.27201395144928    3.00301978100835   11.22675690754077
C         7.43007857663514    2.99257522869294    6.66702771267969
F         5.71355490311014    3.66432404627830   12.31724940436145
F         4.88117309242935    1.78997848117618   11.68090792620101
F         4.15911527019130    3.62832197924163   10.83056576851796
F         8.55049175784913    2.34195362192861    6.30160375045178
F         7.49856440962712    4.21460507280659    6.09362746643339
F         6.41246973299789    2.37187317315195    6.05272456761500

