60
CSD_code = ROBPUU | q = 0 | S = 0 | Stoichiometry = C25H16F12N4O2Pt | MND = 4
Pt        5.96056114631148    5.64091472263886    8.97747581076927
O         7.06910789374511    4.66557477727609    6.54961441384328
O         5.86887762391036    6.54962180760926    6.35462979446380
N         4.78099474191140    4.10724708095200    8.48764379207897
N         7.62021404806358    3.28145126039780    8.85266787467326
H         7.67247912446598    3.77464132716755    7.93949880333283
N         5.29007871450731    5.83349375287218   11.01404602771850
N         7.08345879511231    7.17014951438200    9.59502556807325
C         3.57583997012310    4.32719994387903    7.96059874959314
H         3.30877974222785    5.36563093880455    7.79624602721649
C         2.70781157929623    3.30144380720880    7.63798014041427
H         1.74133718498009    3.52474526215140    7.21637184048000
C         3.10571787140569    1.99102285749508    7.86548553735632
H         2.45533838839266    1.16590187425211    7.62217996148543
C         4.35931887919502    1.75960327011809    8.40386976757967
H         4.70993567107202    0.75582132508128    8.58010589884477
C         5.18108936817918    2.84157409977778    8.70581880375549
C         6.50370626855618    2.65313806536736    9.30577697545294
C         6.86097992042013    1.90122655393464   10.41974945276853
C         8.23878629454179    2.08629954129523   10.63473254192288
H         8.82669251831963    1.65854292132739   11.42102622614717
C         8.67125924107257    2.92916795618547    9.63611069215781
C         5.94711873641303    1.09226524214747   11.26627722820737
C        10.04521842338454    3.47043475069174    9.41602019950940
C         4.38643845929054    5.09541707505924   11.64669457196129
H         4.11638837934902    4.15293173501321   11.18777981122134
C         3.81181056012640    5.47577899407375   12.84463730808880
H         3.09327520822692    4.83507213825162   13.32849205269025
C         4.18210573671117    6.69693391683639   13.39224525777440
H         3.74390666485140    7.03991868877275   14.31677232435823
C         5.12063210188582    7.47155902518707   12.74067075989037
H         5.40298606633210    8.42407984075042   13.14888818349770
C         5.68175666116605    7.01062825108439   11.54660312323894
C         6.71951949788594    7.68900854568572   10.80074475962072
C         7.56895996891059    8.76533345822052   11.10542768457648
C         8.47757098758594    8.87720035137993   10.05010509609128
H         9.27802681670839    9.58265986368871    9.95960998037220
C         8.14279364682405    7.87797781178097    9.15036896055456
C         7.59129629379569    9.63728409647618   12.30276172455150
C         8.88078779596062    7.52294987640646    7.91092323058012
C         6.43915794146866    5.58561270618293    7.05608606144377
C         6.04270779864495    6.54790775096195    4.92646377559924
H         5.92983029928219    7.58994763761538    4.62576951756330
H         7.05507210257733    6.20133164229295    4.70214937594267
C         5.00964808694773    5.65574518816621    4.25547740134342
H         5.14580136711225    4.62377968095084    4.57158096305003
H         5.12800720349566    5.70946833895599    3.17723403986084
H         4.00439934115460    5.97771001117953    4.51764838935404
F         4.75611413543516    1.70143187844773   11.46211616143405
F         6.44877872953891    0.83747792674037   12.47535306813228
F         5.64422588801493   -0.10442641307719   10.71855132280268
F        10.18508252678027    4.71607336837303    9.89867774989700
F        10.37804727750923    3.51231603711704    8.12155365832035
F        10.96771256411977    2.71944838513717   10.03458035412459
F         7.73454098573854    8.95439372348478   13.46125574865304
F         6.45883215103090   10.36379713989682   12.45994735808077
F         8.59145927928429   10.52375964575539   12.26891320226440
F         8.27558872246422    7.92233411561717    6.77241460908641
F        10.10348329027561    8.06395324441675    7.88073332514105
F         9.04145331788911    6.19029167010163    7.79191696098019

