102
CSD_code = ROBQAA | q = 0 | S = 0 | Stoichiometry = C46H46ClN4OP2RhS | MND = 6
Rh        5.80088850963226    4.11985187976506    4.94223953977153
Cl        6.17724399661646    6.42501759890884    5.22657839530422
S         4.33165815919536    4.03335586519312    3.06676385193973
P         4.13489199100304    4.71446086946644    6.39871261342413
P         7.44568080498960    3.80654591909250    3.36668411176779
O         7.30848268085509    1.66023870391566    7.83581068167707
N         4.52156701045186    1.61028618594609    4.18119327660800
N         5.89888343361719    1.56243541017519    6.03002953514270
N         3.32930589120570    1.65656079898242    2.24015914657901
N         7.07240513753661    3.50205025053565    6.48404215904315
C         4.00332717777719    2.30942639803690    3.08466040557142
C         6.84400373285414    2.26561003940658    6.88488430192112
C         5.35716820007481    2.22057903742327    5.02060201417931
C         4.14969189804154    0.21207871940707    4.33653904682444
C         4.23665565874984   -0.17373075247021    5.80645735488164
C         5.62955102904280    0.16773681894785    6.31058484917901
C         2.76245995241055    2.27740064914227    1.07923747854274
C         3.06507112815384    1.42804021239073   -0.15053535316471
C         8.04933977439925    4.27326403387349    7.23439522030221
C         9.44842881014968    3.66175720567612    7.19077425668169
C         2.87591881333080    3.42990172862870    6.76670667986055
C         2.12309245773424    3.02536898056397    5.66416909167479
C         1.15038551010210    2.05343393939636    5.78908116490328
C         0.90549111364945    1.47719742082543    7.02611016573947
C         1.62446987501993    1.89684213728150    8.13203232645868
C         2.60373457288350    2.86937562378334    8.00799892847539
C         4.74062466150315    5.26697850735688    8.01830818674773
C         4.77049934021225    6.62293064953855    8.33009724882070
C         5.26719396370128    7.04202925073386    9.55074385437900
C         5.73973176392568    6.11731511919614   10.46732450783305
C         5.73992076939915    4.76903021688637   10.14984661368173
C         5.25502815332829    4.34377161446828    8.92592610790116
C         2.95828142615351    6.02905268763531    5.93438381835724
C         1.96664854803181    6.33736879903471    6.86520532984470
C         1.02574115116476    7.30619136655919    6.57977124664704
C         1.05929407881564    7.96783230005037    5.36131329941065
C         2.03448353830189    7.65421771675314    4.43160202737281
C         2.98393109637935    6.68630344078273    4.71374279428224
C         9.18167544524580    4.25004286141110    3.70019984988518
C         9.40198246035632    5.52354114178528    4.21924658514969
C        10.69242041706415    5.96951624877830    4.43370101539195
C        11.76890873934637    5.15548035031739    4.12006720200216
C        11.55178442464193    3.89942869021204    3.57852563130384
C        10.26283239739310    3.44475506846707    3.36107477060791
C         7.32325630872058    4.69338334276295    1.77906507488867
C         6.61978237920230    5.88835780280162    1.70061930011955
C         6.59749509134412    6.59818629702379    0.51335255648058
C         7.28184313515411    6.12432565445349   -0.59293046561930
C         8.00492623038057    4.94469869604191   -0.50867554328949
C         8.03572068323427    4.23288009090138    0.67532431296105
C         7.48571903368263    2.04610213185617    2.92449293362000
C         6.77724361572874    1.55185726265396    1.83421662587284
C         6.70834971648877    0.18728554570339    1.61410853184056
C         7.34096012049722   -0.69036794019835    2.47948524793026
C         8.03013843514609   -0.20384882441977    3.58069714048637
C         8.09041263322489    1.15747181359578    3.81274592338118
H         4.82049217090456   -0.40390812953813    3.72814145103933
H         3.13774507615277    0.10461194228965    3.94193045293318
H         4.04046308529978   -1.23847621159065    5.92523495269961
H         3.49093456802082    0.38497665690487    6.37599776646969
H         5.73532273515196    0.03005354289125    7.39031815896266
H         6.38398263461405   -0.45277879070475    5.81219575427953
H         3.13597375997873    3.30165815555809    0.94211140366442
H         1.67765272218182    2.32608282816893    1.22827773429375
H         2.55878826526911    1.83752869324710   -1.02054019161067
H         4.13522396355213    1.41297567731265   -0.34210744243150
H         2.72710858727751    0.40819058455709    0.01346309068964
H         7.73194654405064    4.34512113003254    8.28210128367190
H         8.06644143045173    5.27956956966453    6.81103070791783
H        10.14328798162924    4.31517448814640    7.71217443585610
H         9.43896659073710    2.69153191555550    7.68014022891123
H         9.78804004702022    3.53995838050794    6.16536002094196
H         2.29943209064775    3.49323137440521    4.70411597941743
H         0.58241838966649    1.74755245423460    4.92283237016973
H         0.14876907748004    0.71367633855747    7.12982597476260
H         1.42169574224474    1.46810543479763    9.10284787274882
H         3.13637421494888    3.19691278438570    8.88783108156419
H         4.41997571757851    7.34748558716593    7.60934155174518
H         5.28998781499812    8.09621660214346    9.78462409821343
H         6.12309848722727    6.44729970840397   11.42167822523659
H         6.13324248644449    4.04451423093965   10.84803217820119
H         5.30726034349919    3.29546110650965    8.66684441642949
H         1.94221431495332    5.81731068707566    7.81436758193877
H         0.26388790869904    7.54631943207634    7.30725726869445
H         0.32264878831361    8.72634085150012    5.14019198687047
H         2.06079385260181    8.16432745865907    3.48026538222161
H         3.74407144645800    6.44846489888543    3.98501093802098
H         8.55538259545493    6.15247037345135    4.45970995101342
H        10.85841118284855    6.95344378219721    4.84632551010430
H        12.77796619473641    5.50005609175639    4.29205763666490
H        12.39039861514677    3.26816048079236    3.32212295957120
H        10.10582315638529    2.46397315458645    2.93449705591898
H         6.09453852422442    6.25885857574785    2.56998437624835
H         6.04520334985760    7.52404567973524    0.45345574871111
H         7.25997572839259    6.67631653831385   -1.52118578534141
H         8.55017554378289    4.58081347774901   -1.36762903738943
H         8.61081206268914    3.31932745959317    0.74490588756126
H         6.27736438872024    2.23788917497981    1.16451817450693
H         6.15322214993083   -0.19204015405322    0.76908572147910
H         7.29085823692088   -1.75493391221367    2.30200223596067
H         8.51898369332337   -0.88762344831235    4.26028635627648
H         8.60071666235829    1.54174976556048    4.68687352248952

