101
CSD_code = ROBQAC | q = 0 | S = 0 | Stoichiometry = C37H59N4Nb | MND = 4
C         7.03789377212125   -0.45029539281558   11.60622439801257
H         6.62874271320971   -0.03254442632652   12.52438943855325
H         7.70711045139037   -1.27229505206808   11.85487938293523
H         6.21507814023041   -0.85524940479028   11.01565120681588
C         7.75228700219284    0.60661867563309   10.78966288637656
C         8.54340249968415    0.10521217905021    9.74429949240092
H         8.51079421196687   -0.97556395916641    9.66375995801275
C         9.48413204054354    0.70427680077485    8.89456788809702
C        10.37745821506030   -0.25367001892749    8.13474920966794
H         9.88473109037717   -0.53635845810967    7.20366717747982
H        10.56198681661213   -1.16006497585051    8.70775308731391
H        11.32901546117355    0.21275831460085    7.88478360107289
C        10.75097266950150    2.53694117833748    8.04840493947381
C        10.76422674604402    2.65409073917129    6.65039627688931
C        11.89331007369985    3.16997335251916    6.02958093032843
H        11.91125226812792    3.26655009939029    4.95500162015408
C        12.99931234156816    3.55282668018583    6.76134027273266
H        13.87853390579101    3.93115788605362    6.26125100293671
C        12.96982877409583    3.46541117547039    8.13960131085312
H        13.83158955616887    3.78368335965911    8.70391467751076
C        11.85290963921236    2.97790544174946    8.80196018388607
C        11.82355123163989    2.90566988933845   10.31265030038234
H        10.77703448866692    3.00783228072740   10.63262760307635
C        12.61705560589609    4.03782437698298   10.96571880120919
H        13.68845010297939    3.88008695727658   10.86321826851004
H        12.39108215132714    4.08618860239601   12.02807589719295
H        12.35672491461333    4.99295719943561   10.51608342980852
C        12.35573656946740    1.54742460588014   10.78270468048480
H        11.71840677685557    0.73516500488904   10.43908354469064
H        12.39988486406366    1.51047174051820   11.86920695257536
H        13.35926938154541    1.38330313789625   10.39293382433090
C         9.55360644970304    2.30581549009484    5.81866958300543
H         8.82829425539669    1.77617611437203    6.44770674067299
C         8.90245518403311    3.61780766388355    5.36610448544109
H         8.50069570353519    4.13069386432071    6.24406593724949
H         8.09242142532956    3.42270256235374    4.66658283268614
H         9.63144007589533    4.25825343684988    4.87349730268527
C         9.90072075223492    1.41784807984936    4.62137212347191
H        10.46690384350994    1.96753153857272    3.87373623030880
H         8.98832602724926    1.05626584109996    4.15150686969182
H        10.49160119919253    0.55833386315938    4.93252764870047
C         7.11923207333606    2.27150169392456   12.36817253772833
C         5.78849307681402    2.69510361490381   12.52021579892894
C         5.35948965033464    3.13371931134036   13.76487526962744
H         4.34274906999335    3.47529116373415   13.88417659138216
C         6.20093267540502    3.12471834412209   14.85935586459242
H         5.84435807264162    3.45340601536262   15.82417255883979
C         7.50153556276966    2.68716470373653   14.71063274076111
H         8.15508014485567    2.67136344106534   15.56979565213683
C         7.98198389485249    2.26715525478015   13.47916196702764
C         9.42566423732982    1.82995473211028   13.36567013964997
H         9.65313196615850    1.60397638167871   12.31788887167860
C        10.35649821225544    2.95736299723795   13.81716989719392
H        10.17630157292862    3.85400639554305   13.22696520785984
H        11.39578410194301    2.65795058163152   13.69674711180178
H        10.19770133549868    3.20102340837224   14.86469691120423
C         9.68064116027427    0.56127328352532   14.18302083756754
H         9.51446302808455    0.74401238683508   15.24211546387639
H        10.70843855664842    0.22823681412241   14.04986954218409
H         9.01624205803674   -0.24042757278688   13.86789884454781
C         4.81448960632504    2.69193043779778   11.36520038307518
H         5.26932476343448    2.17260721469797   10.51223844865045
C         4.52984002607799    4.13578060537071   10.93476201563215
H         4.21174592027805    4.73707454624303   11.78451703625745
H         3.74289613999650    4.16009830994704   10.18348507265047
H         5.43686077529461    4.57088373645597   10.50175248429950
C         3.52024529242203    1.95782350628637   11.72715205480380
H         3.73828704409801    0.97433390079640   12.13989027016887
H         2.90643446589345    1.82772882630704   10.83856528242578
H         2.93953866178758    2.51436259116994   12.45863570476756
C         5.51658497441963    2.36568242703390    7.21062360833941
C         5.16108974260174    3.75181173244561    6.63434347978709
H         4.94191390710129    4.42693043460688    7.46053281151342
H         4.30034782084378    3.69071070818330    5.97187783573660
H         6.01269333825237    4.14808131808820    6.08767629316162
C         5.90881843253949    1.41215971704813    6.06144465969412
H         6.73967823700022    1.82635285421126    5.50093514906050
H         5.06803150713173    1.26503739755056    5.38688284273343
H         6.20557930123262    0.44782880438832    6.47037788823116
C         4.25893864905432    1.77876663841619    7.89045389453983
H         4.50791361946711    0.84381948816845    8.38920531160467
H         3.48504337055798    1.58552810478596    7.15055533353674
H         3.87519929256674    2.48185948665749    8.62270636397207
C         8.30786856622515    6.20891458827412    9.18878096542980
C         7.37661964850014    6.89810035563742   10.20824257377401
H         6.34012271630506    6.73663793606261    9.91970545813339
H         7.57341394806687    7.96705928042964   10.24575278662141
H         7.53493897320905    6.47061582832607   11.19746332370659
C         7.95135297422800    6.70361803794778    7.77181072947078
H         8.69135497210685    6.34248069761627    7.06172654832173
H         7.92607373087737    7.79033134873882    7.73754614741458
H         6.97722822837220    6.30570649682488    7.49451960961644
C         9.77201288620678    6.58083441417215    9.50299741730391
H        10.00687401530847    6.30906738682599   10.53002105072192
H         9.93755560273451    7.64769502356915    9.37093857348250
H        10.43174167795030    6.02914271568319    8.83455974016712
N         9.63828637796957    2.00337010364291    8.73723475299876
N         7.63073530020667    1.87698883130644   11.11384814755273
N         6.57056757637503    2.47175437034678    8.14866839373297
N         8.15493329346785    4.80738207128396    9.27912405196930
Nb        7.85207478143160    3.04599833099900    9.28173169868407

