43
CSD_code = ROBSUY | q = 0 | S = 0 | Stoichiometry = C17H14AgF6N3O2 | MND = 3
Ag       -1.04352763876384    1.71973600168580    6.23571137607723
F        -5.11310049452813    1.71944448251659   11.53815795623723
F        -3.29444116974195    2.79462244866788   11.91279134012493
F        -5.79808335753150    1.71959260618008    6.18780157581658
F        -4.04182081493724    0.65236651450324    5.52864728186148
O         0.54841210952337    1.71956087703815    2.19305883027965
O         2.82931147317629    1.71953017245613    2.09593826900775
N        -0.01108194854039    1.71970015939833    8.53839112482276
N        -2.57987093596098    1.71966484096529    7.77433613365038
N         0.11064451728339    1.71972124297806    4.34470285308411
C         1.27529836478838    1.71970495292147    8.85256277759471
H         1.96332647401058    1.71974538553059    8.01599483627115
C         1.74974936063870    1.71965805180382   10.15209616158809
H         2.80940628863293    1.71966150687451   10.35245609844934
C         0.81771693418272    1.71960821422865   11.17979077500316
H         1.13587826962339    1.71957485957518   12.21180602196420
C        -0.52656538992580    1.71960098947582   10.86756798380611
H        -1.24911995328946    1.71956090991478   11.66144648045144
C        -0.92567597398163    1.71964459602770    9.52596393752111
C        -2.31387764181566    1.71962536250845    9.09983952722243
C        -3.53219269345290    1.71955481369012    9.80689623192197
C        -4.55908308761508    1.71954806029594    8.85434864966169
H        -5.61395919100471    1.71950090826972    9.04020196726351
C        -3.91888969336235    1.71961808652908    7.62825002105320
C        -3.80078815494160    1.71949350839475   11.26215510643322
C        -4.46675413949323    1.71963500615514    6.25731114885255
C        -0.39803740220809    1.71963857224297    3.14834854558341
C         1.73056008225144    1.71959555191021    2.84759969103634
C         1.47838484236699    1.71969638930888    4.18550946174058
H         2.14026708795859    1.71974454436675    5.02425804691542
C        -1.82748639950924    1.71962091637573    2.78025874863833
H        -2.43211802865330    1.71967623807866    3.68425327803623
H        -2.06301046913469    0.83814897117362    2.18629504758933
C         4.06713916168602    1.71955255757730    2.80218608514867
H         4.12203691988882    0.82826390885456    3.44013125537828
C         5.18443385927152    1.71949933210309    1.77406387778571
H         6.14626916133175    1.71951198670038    2.27790606215333
H         5.11054373698243    2.60168665446439    1.14461950898512
F        -3.29437836142425    0.64434710864900   11.91271345754104
F        -4.04188832501091    2.78696484509925    5.52869941409545
H        -2.06300672265252    2.60102096188762    2.18618678279624
H         4.12204997971564    2.61089596590178    3.44005285531750
H         5.11052936416673    0.83726093672039    1.14469341523919

