44
CSD_code = ROBSEH | q = 0 | S = 0 | Stoichiometry = C18H17ClN3O3ReS | MND = 5
Re        3.60067834884889    4.26504888015396   12.96285606391324
O         3.11428208238727    4.90479493012342   14.41831669500636
Cl        3.33363145477977    2.07619070949163   13.32610937098835
S         5.93664726046178    4.11278657449666   13.24948767400195
C         6.53526847434647    5.76414504215700   13.13378663356640
N         5.81272138872627    6.84251806140058   12.97859634751162
C         4.59828011078597    7.00062902537456   12.48637319715078
N         3.92882775508895    6.02788739945125   11.86989800103088
C         4.02065473854462    8.34418933687735   12.64305087706830
C         4.81438754049962    9.48548392037375   12.57303823047264
H         5.86526868204797    9.38459567095429   12.34886929811088
C         4.24948622141106   10.73254087210185   12.76443785556970
H         4.86571086747500   11.61689658242003   12.69897469764228
C         2.89673348267030   10.84843368084433   13.04144602615920
H         2.45900477705590   11.82365168903699   13.19348766832515
C         2.10647816957534    9.71280308987547   13.13047293419312
H         1.05571907106456    9.80145453413176   13.36061949802521
C         2.66137817250304    8.46386849611769   12.93048574426613
H         2.05731642355215    7.57234444459360   13.02166792635472
N         7.84745885790946    5.93258026122405   13.33066358733003
O        10.30104844101923    6.08983415849646   11.97584280659175
C         8.48757267533626    7.21517188082669   13.12119048055140
H         9.12615521290829    7.42591349544011   13.98392477379999
H         7.72392860860116    7.98393046469937   13.02762614132571
C         9.35470504153303    7.12471926216864   11.85804855656877
H         8.70684675469565    6.95114274165134   10.98514794486249
H         9.92370515126223    8.04366378722711   11.71067126343161
C         9.68226933294135    4.84257657709067   12.18900791784581
H        10.48803628775030    4.11479840413566   12.28813637609954
H         9.05385860876251    4.57691573399501   11.32594884110985
C         8.81319022296454    4.86585613474559   13.45622728603141
H         8.31272384878835    3.91020886671176   13.59637269623809
H         9.44501666102143    5.07832273952570   14.32427456391750
C         3.10237946982826    6.16174544445609   10.78012806715341
C         2.92921780380349    7.26286469356802    9.94566881320738
H         3.41912858753713    8.19826585028843   10.16928998588005
C         2.11643942421307    7.14002940738246    8.83645320541619
H         1.96455978696311    7.99568249009517    8.19635834601580
C         1.49581499636146    5.93260748456553    8.53011111205268
H         0.86405419767817    5.86512284658578    7.65758460845125
C         1.68841989328769    4.81710649795331    9.31839851859600
H         1.23304855410003    3.86823651737275    9.08242048574739
C         2.50658651290223    4.91595401704811   10.44470206941922
O         2.81236004600741    3.90838730276958   11.22972681300069

