51
CSD_code = ROBVOV | q = 0 | S = 0 | Stoichiometry = C19H27ClNO2Rh | MND = 8
Rh        4.80093480298953    3.76162166658979    3.69975380742494
C         7.53572020883248    4.84180292763924    4.51388928097716
C         8.90926333683649    5.26682824747789    4.25592457570811
C         9.47469948837046    4.95948928079946    3.08407336568652
H        10.49006536809957    5.26088013436619    2.86623327252896
C         8.78446691311299    4.15238898182570    2.04184599431658
H         9.11855582442361    3.10755604816654    2.13038076140231
C         7.26181171950525    4.18109787715457    2.23491925010365
H         6.80859647480399    4.95621499059951    1.59436066733448
C         7.01157833346398    4.98370746235097    5.90281627904776
H         7.10006735949685    6.01264817994000    6.24566540968740
H         7.59408901710490    4.34865849312810    6.56785543793533
H         5.97468185586219    4.65684903926913    5.95327450196375
C         9.64408508511041    6.03412977557242    5.31350062857738
H        10.64061613278774    6.28804764287303    4.96185738762272
H         9.73993797997186    5.44326431215833    6.22232022959469
H         9.12192295884338    6.95695131788098    5.56250478023722
C         9.14877289598210    4.62410116290886    0.63394110599454
H         8.83775274906760    5.65665004464707    0.48099591584649
H         8.65336661982186    3.98774105678113   -0.09372516537418
H        10.22298019642458    4.55690980549248    0.47918791436624
C         6.63486111235201    2.82534608058724    1.70955509074135
N         6.77596764059887    4.39530995876802    3.57639168378825
O         7.22940395653444    2.19562239782632    0.86360609322659
O         5.51304804168246    2.54019480143630    2.21727489925893
C         2.67714452817865    3.54115455371947    3.96926139336771
C         2.86434368974563    4.13048440929719    2.67868549743408
C         3.55683521960586    5.36391255393349    2.85143775350017
C         3.71369325035669    5.58669078258145    4.27212025607984
C         3.15362863098089    4.47712577344928    4.96010380811547
C         1.89183416185424    2.30337622640473    4.26761792276326
H         1.92428371213709    1.61526123274661    3.42687387526586
H         0.85103938030951    2.56615201430745    4.46906831348412
H         2.29632226968338    1.79874107441324    5.14209669077242
C         2.40459015325094    3.53556160291211    1.38756741778046
H         3.04794807093509    2.70201630200066    1.10236162323925
H         2.42525002847812    4.27530798969992    0.59130667937986
H         1.38833665175584    3.15898871928823    1.49503078978699
C         3.84380479130971    6.37257183599482    1.78287296483080
H         2.95998859982349    6.99157570334052    1.61387761081403
H         4.10387668273503    5.88623130117230    0.84501267572343
H         4.66298088535982    7.02692020352025    2.07318940288920
C         4.18939011482308    6.87481285575770    4.86946175328671
H         3.43135228048517    7.64321589639887    4.70780927284675
H         5.11370120877223    7.21171027637639    4.40331726553668
H         4.35690208004685    6.77813000426264    5.93859398901091
C         2.96389163838235    4.30335781470450    6.43316954875405
H         3.37415512585439    5.14173329952399    6.99011349031865
H         3.44952046898472    3.38845815121304    6.77244929033839
H         1.89910958704732    4.22539777622452    6.65374219260984
Cl        5.50433071702939    2.13549996050152    5.17095535406800

