77
CSD_code = ROBVEM | q = 1 | S = 0 | Stoichiometry = C44H28AuN4(1+) | MND = 4
Au        7.76504271560504   11.36339261039596    7.83833068025055
N         8.76005390982633   12.91523899696798    7.08551200240109
N         7.36764157008000   12.41481749744768    9.48191960451650
N         6.71641443358244    9.83355812157670    8.56296184523628
N         8.22332143472505   10.28709214722812    6.22697796315026
C         9.22687948349201   13.03361333214534    5.80145457431768
C         9.59501909576753   14.38759660755686    5.54916531587293
H         9.94213762679038   14.75971695359413    4.60639377843137
C         9.40329300499660   15.07432878674881    6.70300750562664
H         9.56379213139956   16.11725969737336    6.88875487440279
C         8.89826856459156   14.14950788078040    7.66295500285740
C         8.61034886866395   14.47621561742068    8.98311493476908
C         7.93350842306268   13.61305381150972    9.83530986666119
C         7.64334646256025   13.89425833746398   11.20251031113563
H         8.01032946978135   14.74423249375801   11.74160089113826
C         6.85167866432423   12.89080807551196   11.65651561778860
H         6.44484828603705   12.75980984671301   12.63903922412815
C         6.66893028147577   11.97894195417194   10.57627063028911
C         5.88299082271113   10.83452193150011   10.64748768854301
C         5.88624924310199    9.86364793357791    9.65417595860322
C         5.07772822892368    8.68955380957230    9.67259548065586
H         4.30904561696989    8.48951641140393   10.39150149669636
C         5.46363991054049    7.92339454818582    8.62197438532793
H         5.07288750074095    6.97446854621123    8.31398371225823
C         6.49612465936412    8.63288117851466    7.94200384336832
C         7.16883891125300    8.14898964236116    6.82594216619924
C         8.02098562017568    8.94018876132170    6.06636511932772
C         8.75143295016272    8.47847942281482    4.93247224004474
H         8.80515402941623    7.45617135633818    4.61665375096157
C         9.34920180893013    9.56116444098720    4.37564016752517
H         9.98673001276654    9.59777744664556    3.51529318333810
C         9.00471388986674   10.68902290859169    5.17643018363419
C         9.40590429994757   11.99116655363396    4.90117300617175
C         9.01285863743166   15.80425178067192    9.48047681814780
C        10.34834753953353   16.19762256855692    9.42165300654706
H        11.08575702818389   15.51472819828323    9.02581615007686
C        10.73060380860121   17.44021051700636    9.89189747613652
H        11.76910184541277   17.73108849247556    9.85158233015875
C         9.78521676668617   18.30954393669746   10.41139005257291
H        10.08463808644707   19.28063039539954   10.77350889853493
C         8.45397274145843   17.92944475518548   10.46289544427547
H         7.71319529319412   18.60645071399478   10.85992845059008
C         8.06799451456822   16.68273724094563   10.00631692272880
H         7.02774224983322   16.39281019135970   10.03079147609978
C         5.04100219809938   10.63624106496266   11.84110061423779
C         4.09898952434226   11.59879711780082   12.19866103585269
H         3.97994124947480   12.47913204366731   11.58411076177502
C         3.30375936260642   11.41534690806720   13.31456394921035
H         2.57003436567479   12.16188812057108   13.57731060678415
C         3.44826604041623   10.27896854901446   14.09384783518430
H         2.83042049368746   10.14008231616128   14.96725662336818
C         4.38982306452070    9.32258033434237   13.75009436895234
H         4.51060055355067    8.43935636089405   14.35841524065880
C         5.17898861176481    9.49480386132860   12.62790391789713
H         5.92504498288923    8.75768882104321   12.36929746725739
C         6.93919085227700    6.75013894357379    6.42141341212887
C         7.18891504330691    5.71399121475026    7.31897314989927
H         7.56836525488181    5.94439481462467    8.30375366389996
C         6.97966346236281    4.40019200359431    6.94277094498127
H         7.18554263764530    3.60422246763335    7.64188848467216
C         6.50632822118895    4.10564724730891    5.67447026838336
H         6.33847983334214    3.08015524952991    5.38449961785306
C         6.24651850463434    5.13142270167176    4.78016499534930
H         5.87114927145058    4.90682749039806    3.79357265883257
C         6.46587572213527    6.44642424425158    5.14680013684131
H         6.24714183500229    7.24748244093025    4.45590232245382
C        10.07551831687430   12.26137386140702    3.61600723809836
C         9.43856940313650   11.94916114789244    2.41652673713608
H         8.44506880196312   11.52554087587650    2.43773942214495
C        10.06116834973184   12.20566800986459    1.20905285815780
H         9.55522922248582   11.97019112301650    0.28526749226927
C        11.33002662244545   12.76165368154494    1.18378113817409
H        11.81621652133092   12.95687982915690    0.24074951181611
C        11.97389093748264   13.06433953604569    2.37264984512259
H        12.96560235514215   13.48988961312978    2.35734555514854
C        11.35047624828827   12.82214289687998    3.58285051865346
H        11.85848169288151   13.04216865846298    4.51041357530824

