74
CSD_code = ROBWOW | q = 0 | S = 0 | Stoichiometry = C23H46CoNP2Si | MND = 4
C        14.68111634799843   -1.09227755270638    4.18783500473430
H        15.38577484261751   -0.93523512771182    3.36588708131431
H        14.93432973051837   -2.03549761071791    4.67480273792628
C        13.30354961176501   -1.11224642310109    3.61562799848571
C        12.71431897645739   -2.30452968607803    3.23561162383519
H        13.23272596636428   -3.23556311532856    3.41046681658081
C        11.47144011231306   -2.29314503894044    2.62065790767599
H        10.98528527504832   -3.20937856082295    2.32456033006056
C        10.89270708175842   -1.05857681729559    2.36965202366891
H         9.94659399505953   -0.98903237036884    1.85375357718380
C        11.53045083222439    0.09885397639755    2.78098317677319
C        10.93562016363037    1.43353955631564    2.45997263705139
H        10.16723921218031    1.67420130213056    3.20029999059968
H        10.47173903041869    1.42369609731930    1.46967197783811
C        14.34102321824613   -0.36824323705861    6.93990412056263
H        14.34048622368782    0.47270653837088    7.64254252999867
C        15.26455659987001   -1.45916052037626    7.47481532886830
H        14.86692418099961   -1.83456626346677    8.41742218290579
H        16.26926731329024   -1.09033713759873    7.66058471431294
H        15.32763808071438   -2.30002313145929    6.78710615113718
C        12.91017331769261   -0.89121473192067    6.83354307559901
H        12.87098636095785   -1.79948187631417    6.23455317639109
H        12.26983901978674   -0.14554389570723    6.36700540156138
H        12.51088547241210   -1.11898303323980    7.82105737791092
C        16.66684830681085    0.53847179889751    5.39170378942866
H        17.08395354316617   -0.46428273773830    5.54975498127163
C        17.09387234899019    1.45368497329228    6.53458519569386
H        18.18055563525150    1.53049968110411    6.56850176466717
H        16.75119072504312    1.08244968440969    7.49707117936005
H        16.68265747418027    2.44907245908502    6.39206621843374
C        17.17969412901167    1.09277185552705    4.06375647065232
H        16.61208793044992    1.98127869687882    3.79074225104892
H        17.08474013128717    0.36610087322096    3.25943643394858
H        18.23127031416935    1.36369282291485    4.14526752584044
C        11.32188465698903    4.29357489654533    2.63784796724261
H        12.08318307344283    5.07225631485599    2.76597170317676
C        10.39956647030633    4.34431319603140    3.85300626164773
H        10.06185747868337    5.36436089220408    4.03112021280193
H        10.92680853831521    3.99470078433011    4.73599800343656
H         9.51632979661259    3.72666023027845    3.69942719063584
C        10.53300982130373    4.57286399200684    1.36121645748481
H         9.82939274845420    3.76912593898448    1.15410392541288
H        11.18209395960733    4.69985265835187    0.49906218825640
H         9.96150743773104    5.49234126977956    1.48509936148408
C        13.07703943403931    2.68668418796833    0.96920034532261
H        12.30767240980429    2.78701113871888    0.19475618264117
C        13.82050265751868    1.37039288667655    0.76989866996553
H        14.39864757975717    1.39428082872207   -0.15345579289081
H        13.13261330216245    0.52828090270498    0.71948606911911
H        14.50418942978563    1.21228303492569    1.60586915553890
C        14.06343392477952    3.84863539243995    0.89186196712053
H        14.76684168968337    3.78101697584134    1.72009394330050
H        13.55764277212026    4.80969385857926    0.94758177629583
H        14.62370438545051    3.81306980162471   -0.04188910761020
C        14.16515312647265    3.40757157817668    4.93369284036180
H        15.24622852923468    3.36646156960875    5.08973303992563
H        14.00579723688495    4.24676716745388    4.24752454681254
C        12.71698817419255    5.63071885399574    6.63842006284535
H        13.56382360003977    6.30890126772475    6.67275146622484
H        12.11242434932342    5.81876765055512    7.52066624005351
H        12.12396397698718    5.89651707563352    5.77013638648689
C        14.44603314880097    3.61893636700464    8.10685714324178
H        14.79778392225663    2.60017045788735    8.22704005957940
H        13.91795993653329    3.89379599830659    9.01523811318433
H        15.31910060789428    4.25943608814493    8.03049003651076
C        11.78374027792676    2.67385285968208    6.86492940274717
H        11.62506612577041    2.03596223307087    5.99408355903345
H        10.87163901121399    3.23932614982718    7.03414733286230
H        11.92842745402468    2.02764145715244    7.72508454864004
N        12.70432528980127    0.08426587482080    3.44510225490770
Si       13.31163482737838    3.80797410195541    6.57372440547211
P        14.80561264403613    0.39140458783234    5.29257977989439
P        12.28089078636546    2.68761698138631    2.65693105959345
Co       13.46354390383670    1.70041105063817    4.17510848791627

