37
CSD_code = ROBYAJ | q = 0 | S = 0 | Stoichiometry = C19H12ClN3OPd | MND = 4
C         6.95775569721577    8.88133168222088   -0.39936088591565
C         6.62582271363454    9.65942108954095    0.75997638114140
C         6.98326153221752    9.13549114738423    1.99426399658132
H         6.75490899293690    9.68358629772250    2.89914648978520
C         7.63564222812778    7.90912473308215    2.07736987180146
C         7.95202240649620    7.16360773142256    0.94471620121940
H         8.45721242017953    6.21625186832854    1.04964664920230
C         7.61269242872197    7.64962949167022   -0.29827561837681
H         7.84258767228828    7.09529418012076   -1.19485440976493
C         5.57960702269160   11.20334031450634   -2.64397637235093
C         4.93478268670180   12.44654891744085   -2.39223770271639
C         4.48801054731397   13.18976426414679   -3.48206155574837
H         4.00291526661043   14.14247390659745   -3.33631575528788
C         4.66511191013520   12.71522569276097   -4.77201794664527
H         4.31138741828954   13.30619697171099   -5.60341412377900
C         5.28751762635015   11.49885771981996   -5.00691186908315
H         5.41593618351493   11.14415064936947   -6.01760444255222
C         5.74726622418813   10.74069759717634   -3.94508888701807
H         6.23898117850052    9.79233992775313   -4.09568343107546
C         4.12315433577626   14.21670505986965    0.77912763804892
C         4.64982423234547   13.43858159386743    1.87654101672538
C         4.44877088066815   13.96946860813592    3.18288249736541
H         4.84706357161993   13.38543505527996    3.99929679959366
C         3.79202106411085   15.14345483722205    3.41212425664801
H         3.66473210365924   15.50289603837403    4.42295089073494
C         3.27847133401697   15.88891233537032    2.34200536478391
H         2.75796502432008   16.81579818425007    2.52671566898804
C         3.44687184471593   15.42607055455552    1.06918195995242
H         3.05493565887889   15.99603485322847    0.23721073826294
C         4.22348869307836   13.86905708308666   -0.59222112610237
H         3.75398643080271   14.56908075774828   -1.28812571801004
N         6.60901436567466    9.38501576561504   -1.62602146882761
N         6.01982742497304   10.51027756847422   -1.52130373804352
N         4.81968174093858   12.80528081216361   -1.04446715247848
O         5.27411565949941   12.31824039565647    1.80369639408316
Cl        8.07004577901558    7.28463245556077    3.62638578499592
Pd        5.69340769979130   11.33122385876691    0.11000360386223

