25
CSD_code = ROCCOB | q = 0 | S = 0 | Stoichiometry = C8H4Cl6CrF2O2Si2 | MND = 10
Cr        5.57235708671995    3.29690622565943    4.40432913964820
C         4.59271840354042    5.20928360255635    5.20604179967154
C         5.80828635899868    5.63557243422282    4.68224756017728
C         6.14084256240158    5.26772790348359    3.37137372474123
C         5.16704222571753    4.63120082092960    2.58390584362234
C         3.90336651722531    4.31782729913155    3.07226704813876
C         3.63624774023408    4.53221615999899    4.43129594074356
F         4.29539882536238    5.49216800717952    6.48239480114688
F         5.45826778195428    4.36251168289073    1.30310361835981
C         5.20216632006046    2.34642903019347    5.93538512909194
C         6.79061768703707    2.25889259158660    3.49721934207271
O         4.91132803920340    1.81670481448018    6.91211134584688
O         7.55552938905378    1.67577793123044    2.86946885169939
Si        4.36278660698369    1.30455880801581    3.64784799995459
Si        7.60774846990034    3.35249087420189    5.76815255707244
Cl        5.11829846311002   -0.46885094236368    4.29601738431984
Cl        2.42782612235655    1.40410858531299    4.30251242591203
Cl        4.24266868346272    1.19830201597494    1.61582513979544
Cl        8.38320451208872    1.53436290322195    6.24570270618211
Cl        7.34032324817212    4.37317408965760    7.51295689135684
Cl        9.06314217217869    4.37553005382136    4.75891149338797
H         6.47599483639820    6.23724846835808    5.28307199517975
H         7.07045502940767    5.58752205462455    2.92128117178931
H         3.15015589093506    3.91667256446149    2.40850687410821
H         2.66362702749409    4.31326202117148    4.84976921598237

