63
CSD_code = ROCCIV | q = 1 | S = 0 | Stoichiometry = C30H28FeO3P(1+) | MND = 8
Fe        4.27821640264920    2.22214094776888    4.16549454122768
P         5.50988120978348    3.08868195423459    2.55216163860256
O         3.99069749952690   -0.08377435837582    2.44183202014641
O         1.65816461379826    3.39915701345783    3.66534496939387
O         6.78527772908624    3.75643271284184    5.68071804394633
C         4.11080067754500    0.84718213974472    3.08790158032028
C         2.69463672231050    2.94947502962095    3.80974450683792
C         7.02429521025549    2.14681756883354    2.20945342064021
C         8.09791010453630    2.20764699999714    3.09782393173222
H         8.04636601962443    2.85736221576704    3.95979401232396
C         9.22471530020273    1.43865401219720    2.87275094531027
H        10.05919283078041    1.49708439910295    3.55530918574265
C         9.28221370119352    0.59117352932243    1.77708698348020
H        10.16250063331317   -0.00859091310410    1.60510672030258
C         8.20659384990616    0.50836942150787    0.90758010165713
H         8.24602011189631   -0.15851132750095    0.06006909276774
C         7.07699935226217    1.27733088574336    1.12219701301523
H         6.23763938950180    1.20858177440420    0.44443334763918
C         6.00929346028728    4.82076152991981    2.80623759160609
C         4.97764453145743    5.69405348534337    3.14924417739927
H         3.98246460650638    5.29489878288453    3.30534018684498
C         5.22566831837522    7.04806023810167    3.27439854575531
H         4.42415158231600    7.72361413492977    3.53229441222686
C         6.50719544103852    7.53634100359846    3.06269307087254
H         6.70316382582125    8.59282788038901    3.15962021892044
C         7.53247716123050    6.67058138099068    2.71921265477078
H         8.52644015781458    7.05382082273977    2.54578622281326
C         7.28999465011614    5.31340371281893    2.58520294464274
H         8.09183248362063    4.64661269552869    2.30392533565483
C         4.74294613819882    3.25470211385153    0.90841655972236
C         5.47529769475674    3.88494548954487   -0.09793471153690
H         6.47484196962636    4.24194843198229    0.11063666532887
C         4.92650320857736    4.04522653757988   -1.35540995554015
H         5.49697442110800    4.53115742266511   -2.13195723387153
C         3.64543326184977    3.58374539174341   -1.61837470418416
H         3.21759979779674    3.71186421831487   -2.60046271832776
C         2.91452480192350    2.95920337327004   -0.62169319864543
H         1.91775074935791    2.59939509398256   -0.82535590332335
C         3.45960030160510    2.79513504577565    0.64061250000441
H         2.89112352777303    2.30680962503791    1.42112703320067
C         4.36572316304299    3.55712799691371    5.99679018119810
H         4.24857822267706    4.63187554002842    6.06659763489281
C         5.65680268854208    3.04020640204503    5.82744774713679
C         5.75606543200750    1.62841668768227    5.60791693064072
H         6.73321706028593    1.18419242957948    5.49053724392616
C         4.61085179856480    0.81825126767786    5.82105140604412
H         4.70130706246444   -0.24923159644586    5.65723758942026
C         3.37306333760418    1.35098356920535    6.20259492234526
C         3.36933232800183    2.74229387783811    6.79631883518164
H         2.38291748929526    3.19694535286694    6.72027819856665
H         3.63744391584905    2.70631641691408    7.86215303605274
C         6.80400050339202    5.10488989977232    6.12358987466874
H         7.85115376041637    5.40014400300594    6.11114953787079
H         6.41387843399460    5.18485102982696    7.14080462879072
H         6.23843448883191    5.75764576678043    5.45619621810929
C         2.22875152011961    0.48095316501324    6.31556367502187
H         2.36377479717423   -0.51255969142849    5.90502168558854
C         1.04983267087485    0.78584595609756    6.87267782116183
H         0.87302681355143    1.76605173952401    7.29338415212116
C        -0.08517883130422   -0.16017453241599    6.97584445359749
H        -0.35961906459645   -0.30103751131258    8.02115445664371
H         0.15478439866681   -1.12496136201979    6.53780527042419
H        -0.95918543871022    0.25365117636205    6.47282275120651

