108
CSD_code = ROCDIZ | q = 0 | S = 0 | Stoichiometry = C51H52OP2PtS | MND = 4
Pt        0.58374235611030    4.28171569607489   -4.10476732331916
P         1.15304481497119    6.48122337820647   -3.85556170684802
S        -1.89293412445834    4.74594153275651   -3.90395333019965
P         0.06122732495934    2.11732709339397   -4.53407099469820
O        -0.78045264185945    6.34082033769882   -5.59652130280429
C        -1.83284248765962    5.98109018043193   -5.07451763753332
C        -3.15150232976936    6.63175303162598   -5.39956943795679
H        -3.92340410618453    5.87633932202561   -5.52547984917494
H        -3.43362729596594    7.27576159240644   -4.56696645166645
H        -3.05759142140445    7.23429239310440   -6.30040022529705
C         4.65436546696804    7.02556633060986   -0.86297343617430
C         2.54084953300058    3.74952998102608   -4.09615622919475
C         3.29785731589900    3.49592269055723   -5.23296432385383
H         2.88182471190461    3.65887141558736   -6.21955130097245
C         4.59360536948660    3.01880405576923   -5.13151261291562
H         5.16241178122747    2.82733167001932   -6.03179036347609
C         5.16670027869683    2.76795823592584   -3.89362931682168
C         4.41152905323857    3.01710820749758   -2.75535316342213
H         4.83982502391170    2.82767845177217   -1.77985041014368
C         3.11907855437024    3.49996668773470   -2.85537118448594
H         2.55390292746089    3.68694074662636   -1.94701957185197
C         6.57166440446935    2.25205315024796   -3.78379798334132
H         6.87608619670526    1.76025607917226   -4.70513514495124
H         7.26265935954505    3.07489550077010   -3.59550205914268
H         6.66161552387049    1.54639977149527   -2.96008454262418
C        -0.10407177586113    7.65073644452278   -3.26049005587301
C        -0.86535205041476    7.25223765500203   -2.16423244388048
H        -0.66554208714562    6.29417755903649   -1.69845587095440
C        -1.88706884463449    8.05270009341164   -1.69178376967437
H        -2.47589243782713    7.72783716437365   -0.84523667717833
C        -2.17957705738356    9.26374448170798   -2.30822122324735
C        -1.42514357015728    9.64804081228447   -3.41048127093057
H        -1.65171351034873   10.58016624641376   -3.90977499886161
C        -0.40150109530677    8.85146712387215   -3.88952657895118
H         0.14944894023409    9.14998111375862   -4.76889997165508
C        -3.28092227295868   10.13799150689792   -1.78944699083443
H        -4.08582637784990    9.53906307296484   -1.36872981584033
H        -2.89949635979235   10.78899610521091   -1.00162098414486
H        -3.68343556661408   10.76699032572695   -2.58030520427825
C         1.93623435305536    7.23000017019259   -5.30669502601639
C         1.95188274501516    6.52828759137024   -6.50354015428970
H         1.44952934017922    5.57110958502818   -6.54447543413031
C         2.58341222429217    7.05368388910431   -7.61302085452920
H         2.59438888893336    6.50060724042718   -8.54209510678873
C         3.21057384005611    8.29337698193193   -7.55109513485510
C         3.19768851117339    8.98816211434142   -6.34721118203979
H         3.68686633610726    9.95051627048898   -6.28247397271380
C         2.57546537773471    8.46240545765906   -5.23067958239379
H         2.59451147050725    9.00362832324548   -4.29366771695839
C         3.87377415408977    8.86931917312944   -8.76548090502551
H         4.55423334505074    9.67304916259521   -8.49483044479729
H         4.42896327363261    8.10210413212981   -9.30166051821899
H         3.12217893369849    9.27303057008719   -9.44467498031007
C         2.50486445667331    6.76359405439020   -2.64678242525125
C         3.80265436711147    6.44359745023071   -3.04001991846141
H         3.98308741279026    6.09342601917791   -4.04671797104529
C         4.85871924604973    6.57458088932808   -2.16161976253526
H         5.85701719145908    6.31938448131075   -2.48819444740187
C         3.36097100025619    7.34866454794256   -0.47408354356961
H         3.18158084528171    7.70889920672928    0.52976957151555
C         2.29882282111672    7.21769134646211   -1.35014631680683
H         1.30519477899230    7.48455945239166   -1.01971140585722
C         5.79480835314116    7.14301757233526    0.10199267462070
H         6.73884051708353    7.26027699350267   -0.42476232913541
H         5.65341682412480    7.99071653175698    0.76919591389008
H         5.85811919605296    6.24209449478881    0.71336813236699
C         1.37590598812630    1.00813471559002   -5.11926219934955
C         1.60059570650441    0.76907149791421   -6.46856027415683
H         0.91172245993947    1.15822520509090   -7.20602757190907
C         2.70458738844485    0.03865099320275   -6.86931997087034
H         2.87103301938906   -0.14068297237763   -7.92253309476572
C         3.60998608320672   -0.45462772991951   -5.93967124941036
C         3.37513670391311   -0.21623965222599   -4.58887449768536
H         4.07262062285386   -0.59195198563293   -3.85406882483626
C         2.27513277296237    0.50684335078127   -4.18100159880774
H         2.10944233266008    0.70294195002558   -3.13055815796846
C         4.81097948374145   -1.23913982066065   -6.37066661421444
H         5.67826582299958   -0.96938640376999   -5.77183749979202
H         4.63022534325700   -2.30597554455130   -6.23470942197544
H         5.03604991647415   -1.06402337934654   -7.41980732297690
C        -0.62807160519622    1.19827691230698   -3.13664476004411
C        -0.80972079374174   -0.18192799814445   -3.16250752088736
H        -0.51834722786890   -0.74706609998896   -4.03810997207800
C        -1.34439635627959   -0.82416613968768   -2.06403043366799
H        -1.48994397871344   -1.89541047742682   -2.08690011695625
C        -1.69868219160549   -0.11294095914255   -0.92017519042227
C        -1.49273402303792    1.26047108154442   -0.89542592120723
H        -1.75220894847337    1.82329376042032   -0.01012561618788
C        -0.96000976469325    1.91185028866606   -1.99187672391209
H        -0.79840196934105    2.98461681410940   -1.97692582150513
C        -2.27017429531156   -0.83282139298576    0.26263519783988
H        -2.64887331165049   -0.13071142145820    1.00084681870529
H        -3.08092735502223   -1.49099175098964   -0.04514715014731
H        -1.50347910015458   -1.44822773764935    0.73369396197337
C        -1.17598871543273    2.07163025959078   -5.86029240825613
C        -2.23227748497536    1.17796709461134   -5.94861565818100
H        -2.36120575669310    0.41146850348871   -5.19807015938336
C        -3.13703948023720    1.28624432651073   -6.99105395807162
H        -3.96248654655619    0.59049514543356   -7.05123412890606
C        -3.01063549558982    2.28063683461659   -7.95166806573024
C        -1.95156683500036    3.17989245462795   -7.85049576975627
H        -1.85162682983834    3.97042039719381   -8.58088656014748
C        -1.04716412032909    3.07869088726387   -6.81577776378277
H        -0.23722356398146    3.79727980940534   -6.71235065996892
C        -3.99576042223486    2.40706669130289   -9.07324471330898
H        -4.75742366150228    1.63370437613734   -9.01441809173395
H        -4.48423655819273    3.38019021418634   -9.03822823946353
H        -3.48891858167399    2.32556696167651  -10.03425367758415

