77
CSD_code = ROCFAQ | q = 0 | S = 0 | Stoichiometry = C33H39MnN4 | MND = 4
Mn        1.24439271806076    3.80991977595900   16.07591490493461
N         0.77727299833209    2.04328054851042   16.02693108594428
N         2.43756001207308    3.49131761693292   17.48074387010974
N         1.54191581959804    5.65263295886253   15.96969680301087
N         0.01558622783173    3.89627685177052   14.72461452980162
C        -0.19189245252146    1.62940910697879   15.09884567728738
C        -0.41677125339697    0.23294870124832   15.28917084261538
C        -1.36420075721708   -0.66315320320178   14.55959447845099
C        -0.75395368224410   -1.17046212684509   13.25201757694587
C         0.43239322427297   -0.18163183107668   16.29592474847160
C         0.56484984419841   -1.54623222689787   16.88408994641579
C        -0.28474305187347   -1.67937026117363   18.15136663173470
C         1.16463189000491    0.96595302335181   16.75173524555035
C         2.12290142026829    1.07727139397160   17.76464149300493
C         2.71974846528124    2.28147582693791   18.10312704244293
C         3.69549262391939    2.49471506175540   19.13276549396580
C         4.22689733731139    1.42048763194155   20.01747273582737
C         4.00604374821147    3.82980418723065   19.12697182432719
C         4.94240893636897    4.56083297102655   20.03032644998933
C         4.19051184612889    5.18269956784872   21.20988224521138
C         3.21164873949046    4.44475644570435   18.09660849550851
C         3.20122655992834    5.79199825970028   17.75231302923882
C         2.41391412917752    6.36326729894555   16.75859396239440
C         2.36884694000011    7.75490132071619   16.39530967006679
C         3.15603954828731    8.83418521677772   17.06059334976264
C         2.45565287017654    9.31519391535250   18.33396488232178
C         1.45005588161936    7.87860691245354   15.38556497207421
C         1.02034205837133    9.10999697646337   14.66571601240064
C         0.93696292211840    6.56658862005360   15.11549978633733
C        -0.01085433693935    6.22883171420039   14.16228561703140
C        -0.45196859961617    4.91589782530846   13.96490198602076
C        -1.40071070116644    4.39083261003091   13.02304494608840
C        -2.10534421770432    5.22074333270528   12.00359693977099
C        -1.16548057285974    5.63824986732937   10.86845401388872
C        -1.50012042330152    3.02986565286807   13.23973941510589
C        -2.35734349143980    2.09842029424340   12.44495595955973
C        -1.74751981693927    1.79670946065801   11.07367081333156
C        -0.61962436889299    2.71242756107090   14.31720647332934
H        -2.29737646627756   -0.13418484719900   14.36160882298787
H        -1.60803379084929   -1.51645829793086   15.19524338379329
H        -1.46718473809960   -1.78794883771129   12.71023796105206
H        -0.46283393609239   -0.33609928114945   12.62085781421769
H         0.13345332018539   -1.76467992949090   13.45899977790672
H         1.61252172685937   -1.72958329827859   17.13348598717054
H         0.25711835156897   -2.30146998778444   16.15917605436489
H        -0.16573264480383   -2.66900932193000   18.58713642426077
H         0.01379634107014   -0.93509221795675   18.88576613564880
H        -1.33631573411834   -1.52513714789131   17.91989698174831
H         2.40835571116374    0.19266710744978   18.31237800354848
H         4.97915139733874    1.81356856021917   20.69596139572884
H         3.42228893066371    0.98561553583334   20.61075546599341
H         4.67528507893479    0.62396466351654   19.42385887162914
H         5.45457380645818    5.34678529743051   19.47100553522096
H         5.70241959997508    3.87417700062195   20.40871585239896
H         4.87660246407518    5.72595587575167   21.85626424607744
H         3.42816015699100    5.87084667500835   20.85214201338862
H         3.70121890212255    4.40731307351406   21.79499124787120
H         3.85433207529497    6.44940404861026   18.30551111351659
H         3.28004782153669    9.67646163127288   16.37685810063508
H         4.15152510183783    8.46181885430084   17.31200391431480
H         3.04160122208690   10.09096794594017   18.82231284270394
H         1.47463180236363    9.71891465338585   18.09401296391897
H         2.32270601673976    8.48834958935520   19.02776692918289
H         1.56822660069982    9.97829091536734   15.02153914672003
H         1.19179688116875    9.00546936387284   13.59437076900071
H        -0.04404910838965    9.28752293881777   14.82022614955945
H        -0.42703765307979    7.01698266291941   13.55456510146099
H        -2.49744578370305    6.12067078813408   12.48587156521031
H        -2.94890440570847    4.66623446127273   11.58940171475276
H        -1.69809357359732    6.24922871164427   10.14263852246577
H        -0.32698663832774    6.20963127891436   11.25824782263803
H        -0.76714226573518    4.76361406860864   10.35968482300276
H        -3.34486660879672    2.54676060346865   12.30473367067578
H        -2.49139244510865    1.16734501324965   12.98740779838928
H        -2.32606477015656    1.02931407482217   10.56377400084209
H        -1.73618656830619    2.68789423129540   10.45262721358170
H        -0.72343521290509    1.44614468301476   11.18150991214516

