113
CSD_code = ROCMAZ | q = 0 | S = 0 | Stoichiometry = C52H59NZr | MND = 12
Zr        2.83326196657635    0.36481274445743    4.88849467132757
C         0.55409545713080    0.92977807012732    4.76816935304247
C        -0.11974687836480    1.10951962063936    5.97669420128958
H        -0.35317875544115    2.05288524491518    6.44415765052169
C        -0.47685173276096   -0.14532659625588    6.49579689123846
H        -1.03799282349993   -0.30823539657249    7.40056706648084
C         0.01642833693028   -1.13260823945754    5.66211469749894
H        -0.16400273637233   -2.19103124665803    5.76111400623012
C         0.71320052707378   -0.52033118887666    4.59242814292721
H         0.83971257363909   -1.02451713912914    3.63328504790051
C         1.43602584398826    1.88721672698929    4.02548726557271
C         1.45279264349259    1.86573270838254    2.55416809999624
C         0.64803366883873    0.99571124313796    1.80012608330899
H        -0.07225172660553    0.36586301064975    2.30147148396889
C         0.69418857790917    0.97918456523975    0.42042894978760
H         0.06086162362776    0.28864202905087   -0.12056483193046
C         1.51400653682816    1.84767303228051   -0.28731322356971
C         2.25877615090065    2.76783782836229    0.44427207693492
H         2.87046814978365    3.48801963992378   -0.08258725110078
C         2.22949506343586    2.78275904046007    1.82234637478486
H         2.80438706078176    3.53633713541165    2.34353809613689
C         1.58523819299274    1.82417275226633   -1.78477940832697
H         0.86678233599469    1.11932502436425   -2.19623944149196
H         2.58289958843783    1.53159358114222   -2.11454178729337
H         1.37771001628716    2.81194368730819   -2.19475517494825
C         1.55890401451793    3.26093558665711    4.60499470855745
C         0.43377594015947    4.03265609832103    4.88740881987931
H        -0.54587827161086    3.62792257300006    4.68122646934186
C         0.55568739084954    5.30912523991423    5.40703743483103
H        -0.33470285194159    5.88272184955059    5.62383108834087
C         1.80291212715297    5.87161743420086    5.63969747879381
C         2.93142695189387    5.12102915086631    5.32632558751511
H         3.91193954829517    5.54949247972446    5.48555564378630
C         2.81351480186372    3.83993886111183    4.82000298310578
H         3.71270961885735    3.27101302688421    4.57421638051595
C         1.94645006662324    7.25282112905980    6.20407196759817
H         0.97468020795268    7.72153814698994    6.33624164539869
H         2.54612397522462    7.87550555039563    5.54125692453103
H         2.44819271876104    7.21787992209531    7.17099089644597
C         3.59208529900828   -0.67470689286154    7.11779233670877
C         2.63327163196004    0.32356156290051    7.40300100129502
H         1.70379891154575    0.17681978306308    7.93363039669787
C         3.15731434825504    1.57461970909375    7.01123391558877
H         2.70421312716201    2.53741641223550    7.21835453119505
C         4.44952977093224    1.35739314094966    6.47308661136440
H         5.17440939270873    2.12627766596339    6.22528942205648
C         4.71506120043123   -0.03126967771612    6.54089567155498
H         5.67422178816479   -0.50354508750385    6.36179062970616
C         3.61920269889451   -2.10182469933762    7.62101602364046
H         4.14971042776096   -2.73037538331184    6.89190833450137
C         2.24279758444677   -2.69427485357041    7.83153911006332
C         1.76717774519525   -3.69741220201637    6.99903096112980
H         2.37395114141425   -4.04792061858451    6.17507956867614
C         0.52440723890319   -4.26684513324127    7.21225421573507
H         0.17468607120190   -5.04872900544804    6.55188068965512
C        -0.28166165141907   -3.84376351019276    8.25996815469150
C         0.20306163611239   -2.85077851938343    9.10179342586390
H        -0.40258550949565   -2.51662876046333    9.93235763613875
C         1.44970536744821   -2.29183905360545    8.89954562637513
H         1.81945836025916   -1.54570094175319    9.58728316839851
C        -1.64658845031189   -4.42656798207965    8.46277520561334
H        -2.37707052047030   -3.86231150607073    7.88159837616513
H        -1.93907340131005   -4.37784110906632    9.50910449710482
H        -1.68179298805663   -5.46253326845056    8.13260373113473
C         4.38436738007558   -2.21185728534052    8.93114282323045
C         4.83852461523190   -3.46129438191337    9.33671571361817
H         4.66196566429130   -4.32216410421965    8.70629125894705
C         5.50411692970983   -3.61748037308995   10.53637254751874
H         5.84886289164713   -4.59786080398400   10.83412225422313
C         5.73514509671977   -2.52859618638072   11.36875933447599
C         5.27955834430438   -1.28301519067454   10.96168406572144
H         5.44645589351012   -0.42205128629086   11.59383259145281
C         4.61117371409934   -1.12397887855543    9.76040433922255
H         4.26777919414787   -0.14283951487427    9.46818188462537
C         6.47642007502018   -2.69922503066291   12.66025541446051
H         7.55109396319370   -2.71886305301434   12.47482321921427
H         6.20353004973885   -3.63614830735166   13.14155538181681
H         6.26545754929987   -1.87806397415118   13.34110566792757
N         4.00053967795701   -0.05807310540622    3.31329446442568
C         4.11412218581379   -1.42518805783437    2.83292482257680
H         5.11412943730900   -1.61556815970373    2.40973003163682
C         3.92474687808390   -2.39148873002685    4.02105533804309
H         2.95838957755683   -2.15795622165002    4.51591430408585
H         4.74330146568533   -2.22183303406827    4.73064230557571
C         3.93769647482517   -3.85341178088422    3.57466818939165
H         4.91295509870652   -4.08952214425615    3.14087557758222
H         3.79392412709777   -4.51150593213459    4.43525607240031
C         2.85222682402518   -4.10337959144914    2.53445464858830
H         1.87328987436677   -3.88551832350538    2.96871480585610
H         2.86067378329968   -5.15193910374271    2.23036371325191
C         3.08686638003495   -3.20506726502604    1.32512458103538
H         4.05285236208908   -3.45105134584286    0.87678449566771
H         2.31686370417693   -3.38161178164486    0.57166757184612
C         3.07328360255963   -1.73502468271210    1.73400643301039
H         2.08249950241455   -1.46031793262797    2.10559297181254
H         3.27176902428651   -1.10729830332119    0.86505659988806
C         4.97811449751602    0.88629684810092    2.79832391131179
H         4.63823067685955    1.88730880154244    3.12541933772135
C         6.40257486495366    0.67580036107680    3.36419958105220
H         6.35958674688047    0.62613681231783    4.45494870159931
H         6.80632484078025   -0.27088384129903    2.99734648853556
C         7.32162831588620    1.81552040472587    2.93300691601746
H         8.32350885269515    1.65907423425592    3.34033259598404
H         6.94168844146535    2.75803387152925    3.33615750433268
C         7.38865045481553    1.90946950412387    1.41177208440282
H         8.02216088584905    2.74933135955736    1.11874503241902
H         7.83925129135318    0.99727760423650    1.01333528702337
C         5.99001142837908    2.07940574209032    0.82613846576004
H         6.04608194701141    2.10939226460968   -0.26414904418522
H         5.56418391974134    3.02676057454475    1.16380781501526
C         5.08019890319721    0.93484925515437    1.26193978285937
H         4.08182945624839    1.07266520588019    0.84574092894277
H         5.48802600630705   -0.00592012688226    0.88711087484645

