38
CSD_code = ROCMIH | q = 1 | S = 0 | Stoichiometry = C16H16N5Pt(1+) | MND = 4
Pt        8.15869145430399    9.03099683211474    5.29462925847306
N         8.23268390972092    7.08038735120937    5.64809267757221
C         8.04613754962230    6.73635589536280    6.92422167300429
C         8.56221802837789    5.53463280537759    7.40334653568654
H         8.41675063606234    5.23387109132716    8.42699337349796
C         9.30623639104579    4.74363563621716    6.53971621418012
H         9.70859390097554    3.80417205737607    6.88436955744141
C         9.58556790271544    5.18469111413069    5.25414442993566
H        10.23392672350388    4.61299750396388    4.61203276297015
C         9.04023926432330    6.39574183713895    4.83499470532457
C         7.32710031712031    7.75148075168580    7.70696274993411
N         7.20631678628750    8.97949442104750    7.12335773265306
C         6.46780681139239    9.91908492314670    7.73935463280660
C         5.94174289270812    9.70275231377576    9.03233732183899
H         5.39626380579180   10.49899897941277    9.51147249663700
C         6.11880100840659    8.48867847646899    9.63980586833581
H         5.72226331966491    8.30160258762346   10.62469716416416
C         6.79845619898246    7.48210826406383    8.95389203520327
H         6.89916982342875    6.50324921586990    9.38909074142129
N         6.20892631069224   11.05891304477523    7.08676657075817
H         5.72980186107785   11.81360717112840    7.54346921673991
H         6.58883283320856   11.18453098556423    6.16006727406737
C         9.30094953622353    7.07510867257166    3.55801472613056
N         8.93200365800723    8.38767152707545    3.49465328825180
C         9.04442680122484    9.03575451993133    2.32202816089330
C         9.66676512680317    8.42832280119336    1.20889358742015
H         9.78317203729566    8.99939508457209    0.30257358484360
C        10.09080574947087    7.12954116357657    1.29700483821478
H        10.56425800079045    6.64591885436292    0.45785738321758
C         9.87731379651407    6.42743716753879    2.48322515688085
H        10.15007162279746    5.38906189330223    2.55465089308168
N         8.52128579093465   10.26353679176272    2.21709047951616
H         8.07246401393861   10.67068601053628    3.02435136651279
H         8.65536345189059   10.80851568726569    1.38481234971648
C         8.70533211139155   11.02395328359889    5.22789491939786
H         8.91440529336029   11.35625145699940    6.25267303190906
H         8.04682811584338   11.78345013485200    4.79151794219873
H         9.65672716410033   11.10041169207542    4.68614329916526

