71
CSD_code = ROCQIK | q = 1 | S = 0 | Stoichiometry = C30H37N3Rh(1+) | MND = 6
C        11.77965592186539    6.61789389927215    6.82571592904520
C        10.61993281010177    6.07722210107320    8.66647185916376
C        12.01423112214527    7.57121645535600    7.75438556908729
C        10.46570251659758    4.52816750090302    6.71620371701967
H        10.93170877004220    3.64108411681508    7.16475091329753
H        10.78628599166723    4.59307044635241    5.67462157914215
C         8.94622945692072    4.39726173076071    6.77855562612003
H         8.48140760795514    5.35865596698094    6.54866449731500
H         8.61947383885441    3.67351143281738    6.02039581723470
C         7.09543247705241    3.73797044321844    8.17414110125502
C         6.60067064920309    2.43723531679056    8.03320625914434
C         5.23093524725317    2.23188848902229    8.07728467197985
H         4.84650152333969    1.22854562751333    7.97122872871702
C         4.34008582764700    3.28347784085395    8.24595831345855
C         4.85395243863360    4.56318081563816    8.38691405809765
H         4.17787282347143    5.39316029589040    8.52919035816597
C         6.21911859980523    4.81019576674314    8.35436216309604
C         6.72229983764556    6.20758934091831    8.55209605925209
H         6.91325463679622    6.69732553349733    7.59729916233975
H         7.66483455361960    6.19277352936190    9.13496230675874
H         5.98703997235680    6.80103086061064    9.08879029669411
C         7.52075752399029    1.26328699278003    7.84292500243053
H         8.14860439076120    1.38072931900152    6.95922627255176
H         6.93766262093165    0.35631337813038    7.71226952066784
H         8.16508319818681    1.11275957225994    8.71103377494016
C         2.86542687225029    3.03947643848276    8.25782378766096
H         2.48850087895843    3.01151110136390    7.23535002099743
H         2.34264626721772    3.83120385988971    8.78772337713658
H         2.63318892462178    2.08542389421010    8.72441062865746
C        11.36758562096749    8.02115659351693   10.04891973599098
C        10.37287916139321    8.97033715192010   10.29144933994326
C        10.47948018430610    9.76328397736793   11.42255945853157
H         9.71477011764982   10.49889509569403   11.62220649346319
C        11.54960056629352    9.63653103818424   12.30002876840826
C        12.53393713640704    8.69960292332171   12.01866333220317
H        13.37885936227060    8.60297889191049   12.68377880499759
C        12.46926797648616    7.89014422796277   10.89340665951564
C        13.57946614515095    6.93001904787305   10.58908956949654
H        14.33743660022630    7.42288125800865    9.97942470154292
H        13.22544325081582    6.05893937210409   10.04144234960612
H        14.05898476244269    6.60106979010315   11.50729187591375
C         9.21529864331307    9.10810983609864    9.35228990393858
H         9.56100431209141    9.30364648559329    8.33792196208407
H         8.56798755674712    9.92339850677708    9.66023224055926
H         8.63407864289418    8.18645583593309    9.34020813309501
C        11.65465797310741   10.51588196079609   13.50431598741483
H        12.21261029764969   11.41789248932740   13.25298201322934
H        12.18073950765069   10.01160866943252   14.31060391847078
H        10.67096311726700   10.81795038118665   13.85410561231139
C         8.85183644618685    3.39137429799284   11.22451864067001
C         7.89909118790350    4.37395162994005   11.35355373262872
C         8.39537066939394    5.30994488535533   12.45415160398194
H         7.66148364996578    5.97561542224096   12.89781018293193
C         9.59075331632085    5.96613615509608   11.76581275768581
C        10.55576538112496    4.96922729782556   11.63178851870012
C         9.94744478801614    3.70633935545131   12.24065565378123
H        10.63320487799448    2.90133861255336   12.48772726960462
C         9.10926731038144    4.31032097388089   13.37818853766210
H         8.43163750327972    3.59199477711277   13.83847130782154
H         9.71425330652894    4.79349203042634   14.14405635818373
N        10.92985536943444    5.71166866637999    7.39827751493354
N        11.30061233426781    7.22518863068705    8.86926302181118
N         8.52363696630174    3.96429681390694    8.11666012491325
Rh        9.36311051241008    5.01082613248012    9.88425327153412
H        11.62149634566199    5.11470032011740   11.53528178287851
H         8.96607460017563    3.05420502295600    8.27750632621022
H         9.76569352665743    7.03078191675776   11.80555311976918
H        12.14736264233166    6.51244880465275    5.82636562000467
H         6.87071794742514    4.33012754816167   11.02246821252445
H        12.61648577184101    8.45504609959578    7.71814481763808
H         8.72569731133229    2.41532900679713   10.77490939202215

