77
CSD_code = ROCQAC | q = 0 | S = 0 | Stoichiometry = C31H41ClN3Rh | MND = 6
C         5.42555588635422    4.09365770954474    5.78271014473402
H         6.04872119681791    3.36852672645997    6.26412886626376
C         4.01314983161971    4.88750182748604    4.24264790447574
C         5.09687038544947    5.35518269093131    6.13871097056938
H         5.40234954603833    5.94790443199388    6.97522134964100
C         4.94207012138614    2.60778553672098    3.89282914130703
C         3.89122150934871    1.70191817695814    3.73952349989033
C         4.12920884353934    0.52237990854431    3.04648921486174
H         3.31820407094206   -0.18113848097980    2.92429559696537
C         5.37261772029900    0.22663422249988    2.51238879170478
C         6.39739961678972    1.15008605272343    2.66877006726098
H         7.36865310351938    0.94016306163339    2.24396958783616
C         6.20270974520624    2.34148809592789    3.34875910040354
C         7.32031222578667    3.33640940755138    3.45576479369004
H         6.95607388872402    4.34496897419140    3.27020286273267
H         8.09701412956384    3.10744721411947    2.73043612165414
H         7.77020341831164    3.31907317564363    4.44783266479065
C         2.53241245958521    2.00232269496324    4.27446441947878
H         2.57560108738170    2.35478513397783    5.30351304772859
H         1.88941715635493    1.12813471305299    4.22344088427786
H         2.07746309160571    2.80768862958088    3.67775503298547
C         5.61010263194569   -1.04479413366404    1.75641421620010
H         6.55122929649796   -1.50095576550239    2.05721496068955
H         5.66636596287235   -0.83843244862067    0.68742035167031
H         4.80460254767430   -1.75462597683394    1.92537182695247
C         3.68102884913134    7.15298080025238    5.16923499640514
H         3.32640494653130    7.39741765472128    6.17440292856463
H         2.82413669664187    7.13982147019841    4.48314288416828
C         4.69546000554504    8.19696703812953    4.69792731074009
H         5.12982684102520    7.87789556917489    3.75019560489195
H         4.15664337529354    9.14089337147606    4.51568393676795
C         6.90477616316769    9.07436693286299    5.26343283203490
C         7.81614133589236    8.47169063957530    4.39071735002535
C         8.94418052873548    9.17408303352116    3.99596407206641
H         9.64018266654477    8.70283150523731    3.31568670983642
C         9.20802372583905   10.45244836334252    4.46122845719549
C         8.31496422866450   11.02076609479583    5.35760802670880
H         8.51179119305832   12.01199171363905    5.74226309830796
C         7.16875017890616   10.35659669953526    5.76217637321066
C         6.22631441805513   11.01752383524380    6.73001186321570
H         5.20511880662708   11.02317334212416    6.34801593257896
H         6.52753951019522   12.04752548369119    6.90233969738577
H         6.23144194266519   10.50236973031875    7.69225810298676
C         7.61210859302547    7.06706713369583    3.90413604459438
H         7.02423983206061    6.50539957899573    4.62573966854048
H         8.57393306851794    6.57665906364180    3.76775199353684
H         7.09629728802906    7.05563308179804    2.94241852066381
C        10.44365146728024   11.18850096447902    4.03814723454791
H        11.25608341832442   10.99044517326193    4.73846772929315
H        10.26854895934297   12.26195961482525    4.02244108220580
H        10.76566059685125   10.86897918523738    3.04971602500716
C         1.14416403263680    6.06888941572580    1.59190049725580
H         0.40112294549529    6.50182034171941    2.26116164963652
C         1.07058714629801    4.71555410648448    1.33674314354545
H         0.28934462730496    4.15065370204642    1.84615733976819
C         1.61627544206904    4.06787781600214    0.08356518257937
H         0.97730180975274    3.22559719173147   -0.19010140170879
H         1.57177700499105    4.78547943622463   -0.73727352586065
C         3.05623992963857    3.55770290426723    0.27559445746258
H         3.58220764284323    3.54264562968605   -0.68618786510018
H         3.02567244624132    2.52752770962360    0.64143891819708
C         3.85264161328410    4.36848094121988    1.27117063545149
H         4.70878636180542    3.81980173956136    1.65883765612336
C         3.92136946139704    5.76390846161104    1.29865414941509
H         4.81699431020410    6.20124815205294    1.74101243115134
C         3.24615928504030    6.65072354412049    0.27230495922613
H         3.85477059289074    7.54439808610293    0.11567869092427
H         3.20398287459158    6.12136904551864   -0.68090387324984
C         1.83484192907304    7.08429525965531    0.71071651514741
H         1.21151859745206    7.28219944346951   -0.16851251180111
H         1.90984020197036    8.02111489031843    1.26970733585835
N         4.75711329647891    3.81919114722924    4.61346785497189
N         4.23887930537889    5.82655445963241    5.18316735570381
N         5.76067231291205    8.35460327232319    5.67508749264505
Cl        1.10685170314558    5.15664998735959    4.56981498596669
Rh        2.61070726259365    5.08099128392753    2.82106945010295
H         5.38139975493042    8.74952337970171    6.52894458234925

