29
CSD_code = ROCVUB | q = 0 | S = 0 | Stoichiometry = C8H14Cl2N2O2Pd | MND = 4
Pd        7.88450080525643   -3.84370341097293    4.77106883304558
Cl        9.42545926795876   -2.95395740032523    6.19554445349910
O         9.50087042662831   -7.55743966885023    5.32948115443333
N         8.37244786540100   -5.65106503319249    5.37532735039619
C         7.81926521348755   -6.39271871558291    6.49237050444856
H         6.74368358706849   -6.53384268423960    6.34173620120789
H         7.98204674438982   -5.83161895794759    7.41876020383555
C         8.61441667097034   -7.71716308462426    6.44120402863815
H         9.21574565513205   -7.89010028789877    7.33680914421332
H         7.98223332099410   -8.58808526824614    6.25242982981440
C         9.27247903932781   -6.34883305458996    4.80282950217513
C        10.05640890841052   -5.90956990097215    3.62046378805325
H         9.75734416658161   -4.88068761688037    3.35327056934274
H         9.86343431872194   -6.57967290750048    2.78370344856052
H        11.11998875163014   -5.94135422934083    3.85143176747331
Cl        6.34460030558123   -4.73408418933372    3.34611254778551
O         6.26885283511168   -0.12995618125767    4.21177368542568
N         7.39708635814346   -2.03643702151180    4.16600884745699
C         7.95040685083311   -1.29486754478737    3.04894469217055
H         9.02599241032064   -1.15380130519842    3.19961288102897
H         7.78762068827594   -1.85598398158892    2.12256775038726
C         7.15534255668848    0.02963565710345    3.10005731495319
H         6.55402724249842    0.20256736749361    2.20444545040816
H         7.78757430018495    0.90052312504471    3.28881383478192
C         6.49712084867367   -1.33855980501377    4.73844602154852
C         5.71317181466026   -1.77779720650262    5.92080322355822
H         6.01218188467653   -2.80672195768932    6.18797713780450
H         5.90619110013187   -1.10774284888715    6.75758384143511
H         4.64960606226102   -1.74596188670728    5.68982199211892

