69
CSD_code = ROCVEM | q = 0 | S = 0 | Stoichiometry = C19H40F3O3P2RhS | MND = 4
Rh        7.68361867581602    2.14467886200960   11.45682327500161
S         8.02626661292257    2.40861784019432    8.93326187261318
P         6.23859121184648    2.95663423103901   12.94620735131107
P         8.72693440410583    1.11171782126706   13.13888273975758
F        10.30530108573328    3.81819732137730    8.63403298261287
F         8.51606792302920    5.01999413926881    8.48281465868562
F         9.16984293773175    4.29335590388196   10.40584662481063
O         8.79818106745724    1.45423306161656    9.72487603891780
O         6.78667657527288    2.81183094443650    9.59409151060277
O         7.95059462544913    2.16270762887320    7.53637725447839
C         6.38472507651386    4.81686864650561   13.30631573655047
C         7.77416588961481    4.98918294525554   13.91919086884095
H         7.83144226967792    4.54654784454230   14.91045050259985
H         8.01471735986638    6.04719697736566   14.01339307405495
H         8.50630961841306    4.52429260355130   13.26363279320831
C         6.37742106396643    5.56364125160758   11.96871868947453
H         6.92689886770198    6.49907024503056   12.05884303805766
H         5.37296985985697    5.80286762978924   11.63630022642059
H         6.85519155012646    4.95903335963929   11.19933465468671
C         5.34485316649598    5.40238208588336   14.25707329984802
H         4.36361792422034    5.46078912040515   13.79543464148477
H         5.64120026223264    6.41621418406501   14.52530200346098
H         5.26950678430085    4.82327768809365   15.17505902870364
C         4.42077776605637    2.54851000933954   12.56864446080851
C         3.94446262948875    3.47528893823992   11.45094987691733
H         3.76220615297821    4.48205474282695   11.81428899224704
H         3.00883287753981    3.10284551513839   11.03488216458619
H         4.68487359427652    3.50280406329131   10.65320974137341
C         3.46624011309223    2.61320090661459   13.76079351611113
H         2.47825989251350    2.28814711616491   13.43579356126394
H         3.37074399481255    3.61839441585851   14.15555025200450
H         3.78229052479748    1.95600147837495   14.56692890678929
C         4.41706369824149    1.12261060051270   12.00993951725262
H         5.22011398164069    1.00869526416021   11.27452651181275
H         3.47045310534854    0.91989035394131   11.51132045439393
H         4.53337701466269    0.38799956277445   12.80292135925587
C         6.53263926759473    2.12732273324204   14.59569169135906
H         6.24391011881947    2.78571589227621   15.41804334589498
H         5.87157064821592    1.26126246002088   14.61636074287274
C         7.98010049741336    1.66374176161886   14.75974046135179
H         8.04714396577313    0.86956974851337   15.50702902042537
H         8.59354210845094    2.49599986600244   15.10456723661806
C         8.48811683097036   -0.77549125087606   13.12531254501776
C         7.01490624283547   -1.01364394530087   13.45280739888298
H         6.75074665407632   -2.05090698914775   13.25083942129407
H         6.41095598640016   -0.37272858513313   12.81744445042501
H         6.79535659340676   -0.81299622158591   14.49871752797028
C         9.34203791177433   -1.57558349574732   14.10421367735179
H        10.38254463748715   -1.61042051848134   13.79623697405900
H         8.97643231215222   -2.60197262606356   14.13459300939619
H         9.27976844288717   -1.16967639015114   15.11161478489679
C         8.71815227034461   -1.25548249232700   11.69137143660710
H         8.35663032041177   -2.27682871828036   11.57646150611274
H         9.76755126439771   -1.23766439952025   11.41749132663927
H         8.17919069814079   -0.61421749487649   10.99193319624237
C        10.57416138933342    1.48689547365657   13.36865847082799
C        11.18758741192497    1.08580419741287   14.71012399778349
H        12.18145067135072    1.52638003425796   14.78464121030590
H        11.29765553047410    0.01272744806927   14.81171836261361
H        10.59792316842968    1.45484828368619   15.54555481490273
C        11.32317200312988    0.83626064075581   12.20553098625893
H        12.31985193094569    1.26626134348509   12.11335882057734
H        10.78550981407276    1.01216690978558   11.27365044558606
H        11.43966827138242   -0.23412324450243   12.35229142577168
C        10.71019547739681    3.00333915775888   13.21702527046330
H        10.18557709988815    3.33367041610778   12.32246868716573
H        11.75983317579564    3.27535974931478   13.11651479444035
H        10.31481442037008    3.52698056219909   14.08368651755743
C         9.06521270615408    3.97235439089603    9.09839426133694

