36
CSD_code = ROCWEL | q = 0 | S = 0 | Stoichiometry = C13H18Cl2OSiTi | MND = 12
Ti        9.24074719748882    0.01639484714840    7.53857322073836
Cl        9.50861088917442    0.48468143136880    9.71181625452605
Cl       14.51969188635306    1.70558834423816    9.03345807826807
Si       12.48526411974789   -0.19656928080398    7.76704208418684
O        10.95568414704572   -0.18276011732317    7.26180625661108
C         8.78603691100464    1.25448071019401    5.54729249363074
H         8.84300560114142    0.88593373339053    4.53095190712429
C         7.61910289279983    1.30810316149356    6.34617361838961
H         6.63135753186151    0.99296350221583    6.03866069226079
C         7.93485658335959    1.98369042285011    7.53440136446200
H         7.24124627555203    2.26374021368276    8.31921476151000
C         9.28858224822390    2.40613240156445    7.44601022614926
H         9.79676120947934    3.03743020651546    8.16344300866911
C         9.79888589011587    1.97710457098554    6.21124628522281
H        10.78169238897260    2.19577706143625    5.81553686673110
C         9.21357089193266   -2.19133016686656    6.68215634546171
H         9.95491252143750   -2.57835587706730    5.99397776957214
C         9.25955365543184   -2.29354259318291    8.08867268213666
H        10.03959914224136   -2.76993179155115    8.66688877545752
C         8.04488202654233   -1.78462367507168    8.60247539890814
H         7.73809804375947   -1.81364603541713    9.64048649580896
C         7.25897455873196   -1.35452538014273    7.52115743893333
H         6.22975149054404   -1.02550447223530    7.58745110243576
C         7.98012857687852   -1.60583404522301    6.33167894161199
H         7.59592243959745   -1.50762744960176    5.32509568059685
C        12.81981508506554    1.54825875599896    8.53296477611975
H        12.63287770676737    2.36000238682152    7.83137781448112
H        12.21643916723447    1.71525162753638    9.42423916740559
C        12.74729005386252   -1.49280660373599    9.14558560131788
H        13.71656337914713   -1.36482142667481    9.61542225440824
H        12.70154508142165   -2.50716759737663    8.75895120157735
H        11.98640040908343   -1.38717804125472    9.91624636962963
C        13.63874969433512   -0.46411818928942    6.27126416724145
H        13.54378950821555   -1.46988295461172    5.87385692954233
H        14.67181776877024   -0.32037597876001    6.56594354173698
H        13.42109302674602    0.23226829879336    5.46618042706956

