40
CSD_code = ROCWUE | q = 0 | S = 0 | Stoichiometry = C15H15MoN3O6 | MND = 6
Mo        1.42431245305597    9.58728563078908    2.69832396114996
N         0.35867648392497    9.16318938377954    0.85777337739501
N         0.76329383850794    8.02085584387270    0.23651264860785
N         2.39093779661038    4.44379943335903   -1.19454831714804
O         1.98042258692976    7.82859517668855    2.13506285468396
O         0.04755887768145   10.79813003898497    2.82948504933594
O         1.63857189224223    9.25939259912540    4.29346138683446
O         2.61742733681200   10.46572018382443    1.97612548632199
O        -0.70484951009197    7.87482374664705    3.11396406876780
O        -2.29698026263550   14.86666217693462    2.01690412469413
C         1.63972995913407    7.39185073424234    0.96376859162266
C         2.24874823849679    6.15223781284895    0.46546196128141
C         1.85552525077655    5.55665539308800   -0.73582705877471
H         1.07791760478228    6.00680072961265   -1.33613413689978
C         3.34955466947675    3.86620248206191   -0.48664767962331
H         3.75633951311070    2.95811141997199   -0.91163502420425
C         3.81995662026464    4.36924889350274    0.71904846337135
H         4.60498221014467    3.86222548576208    1.25804586832297
C         3.25875848426975    5.53582993467344    1.20603642619251
H         3.58077878992439    5.98591684396290    2.13589530913241
C        -0.40779084385865    9.95713643825245    0.17726493759740
H        -0.66506955516302    9.66893824856762   -0.84271486681778
C        -0.89980493075678   11.18919993970467    0.68463056666289
C        -0.62493925481380   11.58447246941536    2.02286859086208
C        -1.09239741678758   12.81818134329887    2.48932067529438
H        -0.84791708417431   13.07645777663913    3.50899405797784
C        -1.82081953983800   13.65914093669672    1.66089704087139
C        -2.11063804069100   13.25589534143482    0.34198612934451
H        -2.68501154842972   13.92426745815288   -0.27823206057044
C        -1.66008865607061   12.05330722282165   -0.12601433835343
H        -1.87616639462615   11.75438915904342   -1.14088958664382
C        -2.01790211942843   15.35843114880880    3.31053426133792
H        -2.45779141214493   14.72086961644927    4.08244104085602
H        -2.47402901830531   16.34594879458558    3.35270724824691
H        -0.94116531932731   15.44610133818371    3.47858432489105
C        -0.39869370944082    7.00959955769183    4.20009950932364
H        -0.00561881936071    6.05316234426926    3.84041414928082
H        -1.28738513993570    6.83738285451061    4.81452914317788
H         0.36568127669836    7.52524309656713    4.78244473267177
H        -1.35811530695642    7.43784097118172    2.55155708292248

