36
CSD_code = ROCWAK | q = 0 | S = 0 | Stoichiometry = C14H12ClMoN3O5 | MND = 6
Mo        5.33773135359704    0.57787295436151   11.90442211976993
Cl        5.35006568183126    2.73051447446118   10.69932363392218
N         7.33279966200018    0.76062518520262   11.05548063036456
N         7.43351911330363    0.29280216571802    9.79248286101316
N         7.28769335744226   -1.04751672375830    5.89081717760882
O         5.16744614054351   -0.03252886960066    9.97524243952684
O         6.09514125638511    1.55412809831549   13.28179465977413
O         3.72722745619302    0.68493578546479   12.19759983008847
O         5.91632221544916   -0.92963780077516   12.30717050422203
O         8.63032858416808    3.05775801433939   16.88781131848333
C         6.26729556619226   -0.08261174567837    9.32895160015164
C         6.23062532241704   -0.59075138758591    7.95094011877435
C         5.01172164921675   -1.05369714095957    7.41028193062370
H         4.13673955287801   -1.03359482446811    8.04289834729330
C         4.98013847317742   -1.50892121502328    6.10326769633448
H         4.06285300833080   -1.86872390097682    5.66594160781063
C         6.13533235591874   -1.50083607617620    5.34702103785048
H         6.16931557152402   -1.84061565185630    4.32514110413777
C         7.35860595089379   -0.60067778227978    7.15084614184813
H         8.30204501016928   -0.24572169304219    7.53363369308108
C         8.42563430096075    1.09219035824194   11.66288385965887
H         9.37255630513258    0.96539192947811   11.13388854545972
C         8.46399509329116    1.60282048743036   12.98840012716389
C         7.27646468412589    1.80655478520411   13.76405994541510
C         7.40417091477905    2.29725105512030   15.06662486703301
H         6.50956793834758    2.44664654822559   15.65270221990445
C         8.64311922007467    2.59321495106032   15.62025456222176
C         9.80500518175222    2.40227336461508   14.85420322953871
H        10.77841809100406    2.62835056689937   15.25796981239970
C         9.70011990686613    1.91969361407894   13.57403865733214
H        10.59768896147268    1.77285667817346   12.99034405843405
C         9.85037266781308    3.37684967053347   17.51743723909225
H        10.50160098799164    2.50122949098440   17.59807347163921
H         9.58292311302505    3.71884407033054   18.51585648626459
H        10.37709932474607    4.17826955170605   16.99053519466511
H         8.12611602698600   -1.04183898776561    5.31995927109914

