74
CSD_code = ROCWAJ | q = 0 | S = 0 | Stoichiometry = C30H38LaN3Si2 | MND = 13
La       10.35476928615572    5.42801374034903    6.49789346892848
Si       12.49356865107501    3.48706087916412    3.92471903205538
Si        9.21134747900863    7.88417189010681    3.73247935886741
N        11.42015077381500    4.72695600178577    4.47907707916899
N        10.07297994127915    6.53677447600074    4.37138630048252
N         8.79490647205902    7.14640354231284    7.38620069342186
C        10.87326351087962    5.68542467959394    3.76062143937641
C        11.15035337949755    5.79735945693949    2.31023300058828
C        12.21558958660276    6.56428666125630    1.85730353932299
H        12.83029711792427    7.08944631018440    2.57337688031192
C        12.48183081474283    6.65254428393810    0.50235910103242
H        13.31262323960671    7.24959163729295    0.15457480696343
C        11.68605851812083    5.97761817488463   -0.40812135346592
H        11.89549513243148    6.04638298188101   -1.46554287860327
C        10.61917025448790    5.21684454493125    0.03993627126214
H         9.99460281077999    4.69238866302202   -0.66896743041873
C        10.35050404751101    5.12684809206962    1.39425038460800
H         9.51822085939305    4.53849387182350    1.75143633887207
C         8.05515726465988    7.97176535629347    7.70504711120475
C         7.15510222568039    8.97700233920607    8.08492333512629
C         6.73600508085558    9.91671395365357    7.13601220656758
H         7.11408499813856    9.85283588048195    6.12763982834457
C         5.37536477949335   10.96642138261365    8.81257258060707
H         4.68095340224637   11.74239361350023    9.09670693782749
C         5.84791035761013   10.90519173167275    7.50929954648801
H         5.52111746004847   11.63305205958899    6.78230929547465
C         5.79141971925463   10.03460118316891    9.75263811831083
H         5.42067416029633   10.08673996485480   10.76496667691812
C         6.67920441486378    9.03827148091383    9.39911043427842
H         7.01028536113586    8.30737897580991   10.12101754404407
C         9.48219910751745    3.14272496283020    7.62917836528902
H        10.12454629981204    2.53989752483400    8.26005398545129
C         9.28073737592390    2.95710705736434    6.23803561348702
H         9.76044198748021    2.20506119828824    5.62485300051720
C         8.20772412957866    3.78157881756801    5.84182853395253
H         7.74460089535813    3.79181428864860    4.86381679228750
C         7.73552083285139    4.46361698004579    6.98167899406101
H         6.83976198179392    5.06928274921597    7.02846343350031
C         8.52228650842607    4.07005250969328    8.08474888140635
H         8.33567869878245    4.32986021337609    9.11827821382725
C        12.32325319755018    5.27028497400456    8.32540261984419
H        12.58296512527929    4.33265520889604    8.80240415299242
C        11.49838678417312    6.27147900787482    8.87948949789483
H        10.98423532912043    6.21204248030663    9.82954138070027
C        11.60440530068165    7.42295041240158    8.07123814406114
H        11.19127073514827    8.39645468964753    8.30129148462874
C        12.49258023229505    7.13574858343596    7.01442595512981
H        12.85913342428455    7.84851278940054    6.28733525548093
C        12.94708062678149    5.81068901919173    7.17235349810841
H        13.74136192116585    5.34223211913600    6.60553295037879
C        12.89572518708418    2.51435186817940    5.52767904016415
H        12.31253690419252    2.87842820594150    6.37504900902946
H        13.94622442638669    2.59994347362699    5.78648788796787
H        12.68392508257624    1.45681634036908    5.40751144951494
C        11.70278965562104    2.29323922700741    2.65442396302832
H        12.28746306461940    1.38373133044258    2.56110446067194
H        11.64263367587308    2.74897877930499    1.67124826811434
H        10.69671666987264    2.01017498172464    2.94856029934977
C        14.13088178856821    4.13499286189101    3.17512563454701
H        13.98062170403436    4.51967338675672    2.17151739038900
H        14.86976533000201    3.34215437988155    3.11783878391742
H        14.55217147332833    4.93569792711624    3.77528978073183
C         7.35838945529203    7.53301063650956    4.08378959793150
H         6.95880845200863    6.82316719633613    3.36604515662948
H         6.75962436897052    8.43536892186419    4.00884662988279
H         7.21294011164381    7.11031017338388    5.07431105711177
C         9.33444465770308    8.36741349684374    1.88848922350965
H         8.71611759861674    9.23543783675719    1.68060703720439
H         9.00296874999353    7.56335819095622    1.23999329114878
H        10.35263083159335    8.61229295551984    1.60520137120288
C         9.80900207783429    9.40474421676032    4.73793445229110
H         9.89996243649457    9.17386847928954    5.79604629189018
H         9.13075245318201   10.24554280585904    4.63052867591480
H        10.78402225093456    9.73477893227076    4.39276084690889

