101
CSD_code = ROCZAN | q = 0 | S = 0 | Stoichiometry = C54H38CdN4O4 | MND = 6
Cd       13.17973304401001    5.51023260254680   10.66381588603466
O        11.47168491250300    5.79476832269634   11.94393175471220
N        12.69737350451626    7.73862346563662   10.45714578114472
N        11.75677864230262    4.98126674907424    8.91080158923081
O         9.86991725439374    7.22751323939139   12.50751014019090
C        13.34993699620686    8.71373170343508    9.78104387639833
C        10.50014999044752    4.60631073560728    9.13646760240188
H        10.17632047689684    4.63516775211385   10.16911996031435
C         7.93193278774569    3.58457220834422    5.71601407397037
H         7.39997240969220    3.71840820536367    6.64692849687500
C         9.63634799867719    4.20890521711152    8.13488930198354
H         8.63232238573789    3.91096411140160    8.39077568124283
C        10.07969252478040    4.18439771843101    6.80817023094381
C        11.64316832512863    8.04978510950542   11.17480843997299
C         9.25764268492320    3.78256711799606    5.68443113774831
H         9.79536986440110    3.64161959898132    4.75577219983431
C        14.47834049527638    8.38050587348164    9.00272979982669
H        14.78533442269076    7.34471482754217    8.96338329660693
C         7.47319029921867    3.65483206403591    3.30255271306369
H         8.35629211165368    4.26312673400164    3.17638355976272
C         7.12222851226137    3.22006156299136    4.56538962650307
C        10.91559854125778    6.92838714613398   11.94881225221494
C        12.19457316871160    4.96326624784953    7.65455587672681
H        13.22351523848695    5.26706253282442    7.50752096715487
C         5.93220835797993    2.44629999037263    4.72589217494970
C        11.14489491041467    9.36438209417732   11.27672914001594
H        10.26600064229008    9.52199744793326   11.88256131244480
C        11.40683810016494    4.57268203123353    6.58974165432936
H        11.81323383741326    4.57278686535781    5.58936296065845
C        12.92429557090810   10.07052389963609    9.83993338059389
C        15.15463284754506    9.35544708613485    8.32168743999508
H        16.01829127245632    9.09774554658777    7.72683635683305
C         5.13226887974773    2.17058058219522    3.58386512377626
C        11.78518762965974   10.37290060633565   10.61664969357168
H        11.43937668283744   11.39599741839624   10.67485154673023
C         6.68761700335989    3.36784200403778    2.18322757558045
H         6.99492005338736    3.73262331547613    1.21412900677110
C         5.53431073526551    2.64643746568476    2.31890923502505
H         4.91426431577552    2.42956426426308    1.46110901235261
C         5.52307654770268    1.91093538953656    5.96528505910650
H         6.13127209939249    2.06793347621262    6.84260877898086
C        13.64772789652058   11.04730607007218    9.12623206828890
H        13.31923816035352   12.07570364692240    9.17869316487609
C         3.57290471576303    0.93203148230769    4.95283807370271
H         2.66641102553463    0.35471932504294    5.05919065011228
C         3.95030387974146    1.41433962226560    3.73208765000261
H         3.35078260745970    1.21982188703952    2.85415260576729
C         4.37295565506998    1.17873472158806    6.07691588969798
H         4.07653597534180    0.78148070936971    7.03671520521403
C        14.74060084822156   10.69612563598682    8.38375237033967
H        15.29170080632061   11.44830111422461    7.83853041707785
O        14.88777173990947    5.22572819416169    9.38377368366558
N        13.66193942426304    3.28181897053690   10.87039721509887
N        14.60266762755348    6.03915687412729   12.41686229192777
O        16.48951888880807    3.79296539775256    8.82024108125726
C        13.00940275004581    2.30671985430186   11.54654036242856
C        15.85925045152274    6.41422660345860   12.19120237200130
H        16.18319036317754    6.38501663618427   11.15858452664627
C        18.42747089463099    7.43589078668421   15.61168010304032
H        18.95945285250871    7.30204376649538   14.68077844671079
C        16.72306160680803    6.81156818809231   13.19278200573872
H        17.72714459099581    7.10936326219938   12.93691452487174
C        16.27973129228822    6.83601565094493   14.51949997869979
C        14.71615213770849    2.97065479908615   10.15273289448545
C        17.10176269801344    7.23787985157982   15.64325472899091
H        16.56402230776537    7.37885888545804   16.57190542115542
C        11.88102647139355    2.63995760725220   12.32488984598232
H        11.57405070768728    3.67575204824520   12.36427008883881
C        18.88622631754678    7.36558111902472   18.02513264963850
H        18.00314060729173    6.75725515976197   18.15126502248735
C        19.23716474146526    7.80040746912990   16.76231022157781
C        15.44377546037742    4.09204007520208    9.37872014953576
C        14.16489522238603    6.05704588081701   13.67310724422221
H        13.13592531205552    5.75330364873949   13.82013672456092
C        20.42716906853066    8.57419155173680   16.60181771752217
C        15.21443961555103    1.65606247518587   10.05085753255808
H        16.09326715024681    1.49842337278307    9.44493266583586
C        14.95260404319435    6.44767026614306   14.73793093573330
H        14.54616218074214    6.44765989780821   15.73829721659202
C        13.43509419801821    0.94994074375687   11.48772311716897
C        11.20486645982457    1.66505215837187   13.00611725363838
H        10.34128366559770    1.92277244076429   13.60106795594065
C        21.22711422037994    8.84988214232102   17.74384641776836
C        14.57416879501400    0.64755016989768   10.71096256025762
H        14.91998030297897   -0.37554813552030   10.65276055704639
C        19.67180101717977    7.65254869173506   19.14446224104313
H        19.36449464303272    7.28776030894925   20.11355759389110
C        20.82508745717508    8.37398649492393   19.00879279531580
H        21.44512734957263    8.59087260919166   19.86659542917583
C        20.83629327522810    9.10957516996162   15.36242945691417
H        20.22805719341371    8.95264377106871   14.48512172935821
C        12.71181405016847   -0.02680008196078   12.20163452676668
H        13.04026763773120   -1.05520456022431   12.14913536697789
C        22.78651129102925   10.08839023178846   16.37487197594255
H        23.69304508045264   10.66563702794699   16.26851507621329
C        22.40909432073594    9.60609778530885   17.59562433266311
H        23.00863739854017    9.80056322668784   18.47355587015769
C        21.98644184628714    9.84173195531763   15.25079591904372
H        22.28285868598296   10.23900444656346   14.29100377270010
C        11.61903758431327    0.32440632678645   12.94424965373887
H        11.06796935433329   -0.42775576140665   13.48951695481788

