54
CSD_code = RODDAS | q = 0 | S = 0 | Stoichiometry = C26H25NPRh | MND = 6
Rh        2.13971737877117    1.34982833904611    3.02934991197418
P         0.88763565243295    3.11073442130062    3.63133481588592
N         2.84046467505016    1.52125779083769    4.91042572336084
C         1.05231311625218    0.54050393704468    1.41224616857494
C         2.02533600813240    1.41340409166884    0.92145572558315
C         3.25719384982744    0.55251598513180    0.63508951530704
C         2.59896037951021   -0.75919911237209    0.18117418054843
C         1.69612198001684   -0.84701847269965    1.42131707247541
C         2.72664654558597   -0.68318806889432    2.53756694824273
C         3.68774485951697    0.18164739766032    2.05461494555044
C         1.40106772510944    4.68141411392456    2.86806454815689
C         0.61202253549169    5.82376257693094    2.81480676886997
C         1.13081881200722    6.99334110595714    2.28720798643358
C         2.43433935017811    7.03229247599581    1.82044950524181
C         3.22843703739107    5.89713620420757    1.88079582722336
C         2.71271291629953    4.72659398635303    2.40175442134171
C        -0.92537475492943    3.15863975867083    3.54384983637716
C        -1.53311485625394    3.41308942011248    2.31608338433258
C        -2.90993555494876    3.38514310179197    2.20316198222395
C        -3.69016834097752    3.08945810122433    3.31056638367020
C        -3.08955222186380    2.81251708758047    4.52772544130425
C        -1.71117827144748    2.83924342079816    4.64550362533590
C         1.35729324268391    3.35891709339013    5.34799181360104
C         0.85547346613513    4.36096322341890    6.16097478338438
C         1.31528180030091    4.49488131821393    7.45676531000086
C         2.29252690205821    3.61651194645889    7.90907126412143
C         2.81342749060306    2.62877733204518    7.10331851000094
C         2.37016701633594    2.45932895171870    5.77171938521681
C         3.88256136472214    0.65909884899942    5.43942682577565
H        -0.02019915130485    0.68631282433664    1.37383104804152
H         1.84646004541603    2.35668314312786    0.42055007760094
H         4.01940661950862    0.98495834595727   -0.00858081600545
H         3.30270404543450   -1.58892953268896    0.10221270903131
H         2.03962308365615   -0.65768529521039   -0.74903309695677
H         1.02453216705347   -1.69825128809621    1.49927290495998
H         2.80877638902425   -1.37211133250225    3.36724866169927
H         4.69809187708567    0.31930704845804    2.41734963227107
H        -0.40600758914648    5.79621206514988    3.17757801786143
H         0.51546854806191    7.88044482098076    2.24215618937325
H         2.83235111007887    7.94845837272579    1.40935514332377
H         4.24589539517863    5.92959185237140    1.51889778307663
H         3.31442091166551    3.82006966608021    2.45907756485943
H        -0.91485475632075    3.63780143185643    1.45641936319332
H        -3.37840343912375    3.59131601216913    1.25145919369924
H        -4.76651469439089    3.06992629177398    3.22197645711289
H        -3.69814746559446    2.57324130167206    5.38772080458765
H        -1.23491558669492    2.61796563211157    5.59043774887672
H         0.09726948083315    5.02865016819911    5.77208031864523
H         0.92614532864954    5.26587659924085    8.10405242657792
H         2.65991376171449    3.71029848059611    8.92216212987596
H         3.57395526545721    1.98470095747867    7.51482032458920
H         4.75288309112453    1.24499012596819    5.76332751720405
H         4.22093534146198   -0.04476131286179    4.68241219042232
H         3.52017011716786    0.07943724459231    6.29860309595833

