77
CSD_code = RODFIZ | q = 0 | S = 0 | Stoichiometry = C40H31N2NiPS2 | MND = 4
Ni        1.30854690971637    1.35199844961988   10.63670231243408
S         0.71821017445232    2.91025194175974    9.29099615630162
S         1.75346068615534   -0.43652662458931   11.85903564015571
P         2.48864286960821    0.42375918630754    9.06082242018506
N         0.48524688593110    2.11489030803758   12.18610763980478
N         0.55559887973186    1.40050155851178   13.33020237778417
C        -0.11410850075364    4.19448326470952   10.03524446573605
C         0.26489519546664    5.61362650915947    8.03273335797682
C        -0.11420164119390    6.63216862030409    7.18073755672169
C        -1.28640109296327    7.33369060847838    7.41033566304365
C        -2.07959444288661    7.00432416126966    8.49682738021705
C        -1.70215142743097    5.98848997635035    9.35426490061737
C        -0.51906398192804    5.28194443436280    9.13761444265057
H         1.17777007272415    5.06553003816746    7.85259690485159
H         0.50685704955272    6.87952567871821    6.33216511168088
H        -1.58424636502201    8.12876405613599    6.74282909908012
H        -3.00174897099304    7.53842373393520    8.67465105316345
H        -2.34378873138853    5.72323944007484   10.18134300140669
C        -0.40510170242827    4.24662341690815   11.37836875658507
H        -0.90167671949706    5.13549069140093   11.74345834427977
C        -0.14101272897995    3.27720147482641   12.35470047635925
C        -1.60013531455806    2.81608299984750   14.33533817427331
C        -2.07594221187739    3.15415644314495   15.58856272801544
C        -1.59795954424139    4.28218925977309   16.23519661611010
C        -0.64575492141815    5.07663778524001   15.62018719405593
C        -0.17317958991323    4.74678091366161   14.36235089250155
C        -0.64219671213730    3.61039206999774   13.71468810229156
H        -1.97252551569152    1.93603698811270   13.83294170643614
H        -2.82052205932714    2.53241791317974   16.06408564334738
H        -1.96725250055281    4.54127385862030   17.21671084589373
H        -0.26941738059047    5.95721790820840   16.12032020295511
H         0.57512153863435    5.36278436642818   13.88422200814001
C         1.10272167580129    0.24061210459983   13.32685706744009
C         0.65814381358760    0.04328042339330   15.74441778411389
C         0.70569479618929   -0.66459692448387   16.92852685444649
C         1.25476474101173   -1.93743043354089   16.96079121526748
C         1.75730692337066   -2.50051232085963   15.79910319582348
C         1.71354679559036   -1.79829371687630   14.60998275118610
C         1.16285773726660   -0.51915451882675   14.56952053719041
H         0.23347388848434    1.03452021117880   15.70714126604285
H         0.31377769350368   -0.22251298452711   17.83323660918850
H         1.29125811233783   -2.48816905926654   17.88946319838598
H         2.18639488216465   -3.49179214088037   15.82073801718596
H         2.10381501778497   -2.23326026955512   13.70175862767451
C         3.10939856429699    2.39205401079929    7.24342765180677
C         3.08920887212933    3.04350802114709    6.02621180984681
C         2.41441339254634    2.48258518231531    4.95294609667274
C         1.76308458285146    1.27041434224376    5.10267500543001
C         1.77659064158227    0.61525889885794    6.32240174576734
C         2.45738088367014    1.17028481889343    7.39740198279828
H         3.62636148437432    2.82512556472478    8.09018616596521
H         3.59365867834054    3.99216057590677    5.91286978594601
H         2.39341657123206    2.99327829759499    4.00147343310647
H         1.23659687305061    0.83311218894157    4.26676253096010
H         1.26168268929175   -0.32827766469472    6.43518540396619
C         0.61916105271920   -1.51544169727818    8.67400534203622
C         0.12354970821154   -2.78422815870711    8.44802097680343
C         1.00078825557806   -3.84890759137682    8.30818338125436
C         2.36631266441830   -3.64112875706414    8.40445412983873
C         2.86908247772465   -2.36979545248380    8.62593806669035
C         1.99446915254281   -1.29973944507629    8.74719562346294
H        -0.05100981353916   -0.67197971329674    8.81529854785072
H        -0.94260815909455   -2.94787627770265    8.38908582829121
H         0.61746119676479   -4.84396245230896    8.13637445335679
H         3.04642324952265   -4.47552089122208    8.31228278473767
H         3.93426068727344   -2.21624213292379    8.71718347124231
C         4.78124203311905    0.74819823944982   10.59575543151930
C         6.14351061214882    0.71941709045371   10.83635136603865
C         7.01220041444266    0.32091844415765    9.83435564123936
C         6.52092667955609   -0.03620984090472    8.58747637041580
C         5.16119314439340   -0.00628404320467    8.34139494111600
C         4.28385434805141    0.37331354854030    9.35423095409053
H         4.08781811266420    1.06441353600805   11.36837621096876
H         6.52687248448083    1.00795482827899   11.80385430593613
H         8.07572960450149    0.29366689702128   10.02072042306180
H         7.20218375315349   -0.33686998294390    7.80462771969928
H         4.77496082463414   -0.26706218538720    7.36521411889525

