77
CSD_code = RODFEV | q = 0 | S = 0 | Stoichiometry = C40H31N2NiOPS | MND = 4
Ni       -0.38759220226571    1.54420953733200    2.97242257311460
S         1.45082931121894    2.31960912889765    2.31278249665360
P         0.18557832835757   -0.55366198506124    2.83703666881161
N        -1.19076646805860    3.19997580569650    3.36803802158164
N        -2.48053206265794    3.04081169802162    3.76986012607026
O        -2.06748193227642    0.83310799489376    3.48330077459822
C         1.53054645832942    4.02773763833908    2.41054254762500
C         0.52405037779064    4.83459364930360    2.87447390451521
H         0.72854890245884    5.89475911219386    2.93638196942805
C        -0.75209091661208    4.44460728351822    3.32641823702176
C        -2.86370974515414    1.79695913798098    3.80520151726671
C         4.00425989287319    3.96023525931722    2.17345603381892
C         5.19474215552776    4.51206859873226    1.74218201591286
C         5.19902045052148    5.72267997133953    1.06934026166102
C         4.00175083171811    6.37532920111203    0.82743198675264
C         2.80926128005141    5.82880028490429    1.26211211321198
C         2.79443640371839    4.61470039322912    1.94800285083974
H         3.99943193616128    3.01730938368836    2.69886754119860
H         6.12459726656820    3.99555310284238    1.93104446490349
H         6.12960280746652    6.15323217641367    0.73001132074872
H         3.99646706583697    7.31398152093590    0.29239074378263
H         1.87992023895779    6.33475427884712    1.04657932973227
C        -1.90275410466636    6.61402790998437    2.93482590459305
C        -2.73512064168989    7.63953589888770    3.34552046435954
C        -3.31441943764302    7.60331036801335    4.60224597287201
C        -3.05898746709579    6.53590638326086    5.44722197178679
C        -2.23379417399568    5.50535914943282    5.03782747006506
C        -1.64936047623717    5.53655342699544    3.77629696930025
H        -1.46242627566415    6.63682901778713    1.94818479717421
H        -2.93335814947027    8.46832120561428    2.68129606101145
H        -3.96455650511145    8.40454335233303    4.92210253755742
H        -3.50715497469500    6.50530143445614    6.42984957868050
H        -2.03603304891619    4.67447666583716    5.69757688427933
C        -4.67224951753177    0.15860728127716    4.19200480626605
C        -5.96282731447610   -0.15213865222709    4.57493883018943
C        -6.82538590001890    0.85083500679218    4.98714014372565
C        -6.39519371747749    2.16891883759957    5.01378850000079
C        -5.10703320705490    2.48876592999740    4.63074576425497
C        -4.23758158121473    1.48149355092866    4.21827066135581
H        -3.98688895937419   -0.61039820031149    3.86621064028995
H        -6.29836518548744   -1.17905405987178    4.55182472498944
H        -7.83416874647872    0.60616775750685    5.28715229710286
H        -7.07048890669819    2.94892727812090    5.33468407346088
H        -4.75541119937227    3.50880868251459    4.64160419956401
C         2.83633785363265   -0.77408849676405    2.13530984239631
C         3.91916799344661   -1.22448972052699    1.40614985539698
C         3.72965062228575   -2.12256268200072    0.36731225699986
C         2.45441774966028   -2.56606068175681    0.06105724620646
C         1.36515322569227   -2.11538731496274    0.78682921196760
C         1.55204662019315   -1.22082214547320    1.83296779793740
H         2.97300761897051   -0.07133990933389    2.94547846777787
H         4.91278701163105   -0.87470403952518    1.64426901670491
H         4.57558128959107   -2.47487722326426   -0.20425795278978
H         2.30522083539994   -3.26630945842243   -0.74808616919510
H         0.37200799031754   -2.46525181169387    0.54296798256920
C        -1.69734471996177   -2.62811374599733    3.29467130192438
C        -2.82047345793060   -3.35630768187740    2.93804718476215
C        -3.46916645892127   -3.10241674621824    1.74157570352237
C        -2.99905785173285   -2.10993038041737    0.89503823720775
C        -1.88124219395331   -1.37960846501961    1.24780063970935
C        -1.21646704771389   -1.64318567764455    2.44371456668008
H        -1.20867123128971   -2.81689591450715    4.23956795091992
H        -3.19653722864371   -4.11914953222939    3.60457846553828
H        -4.34931998109433   -3.66810325885207    1.47332250473574
H        -3.51364051155809   -1.89988129179739   -0.03131071590813
H        -1.52018316185704   -0.57987587577027    0.61156534162256
C         0.57338244164825   -0.13515986612806    5.53418681195280
C         0.96475840569935   -0.45913156048340    6.82047865430749
C         1.51197232552743   -1.70562974014011    7.07768926063100
C         1.67446396053908   -2.62232939073461    6.04991219322050
C         1.28532907320530   -2.30117534155336    4.76239110258098
C         0.72285415913664   -1.05504493692683    4.50269121925179
H         0.14837235891710    0.84457932250362    5.30605466815087
H         0.84758768165259    0.25680642672856    7.62056262213572
H         1.81869217007395   -1.96312376065189    8.08075264173637
H         2.10824473912703   -3.59033620694724    6.25471773410904
H         1.42015682807439   -3.00864428904608    3.95560360327133

