62
CSD_code = RODFIC | q = 0 | S = 0 | Stoichiometry = C21H31ClN6P2Ru | MND = 8
Ru       -2.22251332776957    3.28569430997480    6.72942678305629
Cl       -2.84023401881326    1.30756059560858    5.53217523446458
P        -2.53693797339871    4.18397134819863    4.68247941850540
P        -4.36373201095625    3.19710744786200    7.48074216261313
N        -1.30697289007115    4.37361147759899    2.21166506467880
N        -2.53946229368100    6.33964728565205    2.95234306195549
N        -3.73375908594424    4.36086166996540    2.20090371139681
N        -7.10466912135353    2.93534089053876    7.20649452778824
N        -6.32824785536522    3.97191054021361    9.26494795721561
N        -6.07243421005792    1.57439223540746    8.93206602934352
C        -1.14625945714663    3.77001469707520    3.51867902426360
H        -0.19863263933424    4.11184920580969    3.95408529988369
H        -1.11088985247432    2.67805539483315    3.41779582835867
C        -2.55265825150020    6.02251140770723    4.36618065605786
H        -3.45068775173431    6.45385303656327    4.82419661584819
H        -1.67686849302365    6.47827860166611    4.84233239034164
C        -3.91638832652649    3.75638658984430    3.50417374548690
H        -3.95131794469588    2.66548893873018    3.40537475258753
H        -4.86842634231902    4.10171777972974    3.92328043205151
C        -1.34880801965887    5.82349153589644    2.29438026521508
H        -0.46414750730392    6.17684346092058    2.83151065593260
H        -1.32879653765255    6.22232519688919    1.27504733896052
C        -2.51562711324120    3.90041510256279    1.55656330288370
H        -2.51005995872145    2.80809778809281    1.54547238687733
H        -2.51271278319676    4.27285128203780    0.52708469720349
C        -3.71309051445275    5.81061539277359    2.27493906958911
H        -3.71863577210756    6.20446462567134    1.25344903764758
H        -4.61044021174846    6.15608810734687    2.79543943269873
C        -5.90300574217587    3.17178179351169    6.43199426657327
H        -5.99922436804898    4.13809152722528    5.92016871037906
H        -5.78887591331020    2.38108837029529    5.67997233131225
C        -5.01948461524611    4.36016421857233    8.77976282515775
H        -4.32053382989552    4.38262819293515    9.62311439899304
H        -5.07805212489748    5.37017765721548    8.35686159143291
C        -4.72844929135090    1.61668042269898    8.39316248793882
H        -4.58590655955593    0.78406775061511    7.69303049534182
H        -4.00787042727904    1.50517672350083    9.21348097647116
C        -7.31693403957755    3.97511255811844    8.19878920725694
H        -8.30152164400850    3.81719776793687    8.65068252722819
H        -7.30369655811388    4.95038452932598    7.70418788203182
C        -7.06794627613213    1.64478981053915    7.87619129166883
H        -6.85954448559660    0.86673645888204    7.13809752558211
H        -8.05192133992502    1.46640375424998    8.32191055219350
C        -6.30427620121100    2.65176322770193    9.87750705442539
H        -7.27618154658973    2.48471077067539   10.35335739301727
H        -5.52333634846782    2.62876688203862   10.64258889264302
C        -1.25490321999391    3.25222529082840    8.85343227155048
C        -1.15494357893789    4.53675137654795    8.20508924732588
H        -1.40224728233480    5.48487857674994    8.66422983599733
C        -0.32982745993022    4.36651043886938    7.06238725875602
H         0.08156395023222    5.17496382226670    6.46785153182965
C        -0.04995248773000    2.98813116388997    6.87976216653798
H         0.65935679132184    2.57444459639187    6.17483473808360
C        -0.58344062387347    2.28726372016600    8.01858019404773
C        -0.50345976069444    0.94568828880325    8.42941169332600
H        -0.00114841919008    0.21852634755907    7.80718370228358
C        -1.05074293347458    0.58924146885896    9.63752535164960
H        -0.99159111013182   -0.43653162252476    9.96953950507069
C        -1.67057169751364    1.53586526516443   10.46887413199856
H        -2.06032858515756    1.21611089460489   11.42486154814735
C        -1.77815061065510    2.85400288510221   10.09613468732867
H        -2.22984139630308    3.58545912550804   10.75421284350134

