121
CSD_code = RODHAT | q = 0 | S = 0 | Stoichiometry = C64H52N2NiP2 | MND = 4
Ni        5.04803913589419    2.73582647868324   16.86728447145136
P         5.25163466697770    3.32578390843411   18.89642066565670
P         0.83848400256922    1.77475309670229   16.03290696401045
C         5.09522160648750    4.54772688978536   16.37823918879676
C         6.27292626532068    5.01422857792040   15.79293234666330
C         6.35202888502767    6.29678408480578   15.27754121580176
C         5.26027201631305    7.14467980778337   15.34296032706393
C         4.08978291323632    6.70055717760119   15.93046763486763
C         4.00813355669298    5.41789545847758   16.44875452065100
C         3.98784798792541    4.39041755836101   19.64972361966532
C         4.09607443665787    5.77729575482293   19.58710279571417
C         3.08074430734258    6.57307195757658   20.08277704999202
C         1.94401691692078    5.99501305080666   20.62760490590653
C         1.82454020975564    4.61581180810903   20.67727485501663
C         2.84235645651585    3.81699506164202   20.18938516370403
C         6.82289016084735    4.05395622429431   19.45190410837505
C         6.97695816727766    4.74566454829666   20.64703805678644
C         8.23606685718159    5.16100078257659   21.04267887390186
C         9.34376664075232    4.88070593998802   20.25902245008617
C         9.19674903341115    4.17228811701326   19.07642154676482
C         7.94104381845619    3.75775153898477   18.67871593262165
C         5.21028016128441    1.75607334093474   19.70667477446208
C         5.28409929114696    0.67906040774620   18.85266606784451
N         5.13323916169558    0.82504010772030   17.52317010805960
C         5.40315744544347   -0.66928813888855   19.45850395400249
C         4.54636809683385   -1.70582826408314   19.09870103271711
C         4.65360210974756   -2.94566088789416   19.69997085683970
C         5.62013461505876   -3.17182020873405   20.66523091879890
C         6.47682902992082   -2.14718660485338   21.03048417640465
C         6.36634167854029   -0.90432526095562   20.43529294667621
C         5.46247886722813   -0.24611991096540   16.69798024904045
C         4.58477591290895   -0.67242128891462   15.69613061438150
C         4.91126460766615   -1.73051317827603   14.87293712050817
C         6.11947443212213   -2.39103936634570   15.02210252848278
C         7.00154048432832   -1.97757362420113   16.00767048963824
C         6.68130930381937   -0.92339478277828   16.83686297437310
N         4.57219661076781    2.40808558482491   14.95933478028097
C         5.51194883647085    2.49247270255159   13.94510575448928
C         5.29141634864117    3.15994578229366   12.73855279090793
C         6.29780482372536    3.23865833283371   11.79582335635120
C         7.53574568555644    2.66551220163146   12.03387767395407
C         7.77306383688812    2.02754306636169   13.24169234212334
C         6.77668752603018    1.95024786528740   14.19093396563614
C         3.28313038400645    2.26479116171112   14.76356158295722
C         2.44120579845053    2.38613690802486   15.87748884080488
C         2.68872519083922    1.93285339161434   13.45142389479082
C         3.14637891796252    0.84233915145765   12.71761402135255
C         2.56965734168214    0.53343876150974   11.50090267994949
C         1.54939941857310    1.32029346287791   10.99143506108223
C         1.10203624994154    2.41667480023773   11.70820831090966
C         1.65986432637860    2.71618427510346   12.93860695318282
C         0.62923093427046    1.32043364437591   17.77828269504779
C        -0.58042836204070    1.48417256015404   18.44376205630693
C        -0.69366813796855    1.10053219140607   19.76815209491819
C         0.38961289755362    0.54488073547493   20.42990376157704
C         1.59594779210501    0.38041104939918   19.76878526020201
C         1.71958497672507    0.77015358091164   18.44728414366647
C         0.46032127081213    0.29070794898584   15.05313776552989
C        -0.22496833416541    0.35430908327179   13.84533106006987
C        -0.36221935408735   -0.78473784436502   13.07338170485774
C         0.18156472387579   -1.98569736016713   13.49765218445035
C         0.85305101413279   -2.05418612311744   14.70832920718724
C         0.99373169243906   -0.92048298887126   15.48500832469645
C        -0.48797091563500    2.98366284590384   15.69357726520026
C        -0.13079047280687    4.32672938401110   15.68318532892801
C        -1.09238252240988    5.29811755289352   15.47390536692117
C        -2.41363526528536    4.92938604732941   15.27753215477855
C        -2.77453446738633    3.59105667810261   15.29681625720275
C        -1.81679248820001    2.61532854371209   15.50805247538132
H         7.14318535452371    4.37109213711330   15.71451159429097
H         7.27331267789220    6.63357456300067   14.82214047812418
H         5.32329884556452    8.14634064120965   14.94134658118787
H         3.23211383497660    7.35772432922950   15.99457878581082
H         3.08226932776473    5.10793729670885   16.92038419460863
H         4.97648001527876    6.22202632848953   19.14355071245221
H         3.17028414860546    7.64912620795785   20.03914937961962
H         1.15032144745813    6.62065962877184   21.01011741028184
H         0.93618350239784    4.16149533262281   21.09397797269764
H         2.75906746213188    2.73900765171278   20.22010711911171
H         6.11323960388277    4.96098839250662   21.26116149382358
H         8.35549314682706    5.70480432730822   21.96922790870029
H        10.32333818485977    5.21144591262500   20.57270085046077
H        10.06218892499047    3.94741100791692   18.46953146866077
H         7.79998934958281    3.19654193951986   17.76104579841603
H         5.26178342481374    1.66219628908029   20.78084320124237
H         3.79084812918914   -1.54213230399097   18.34404948289098
H         3.98069370417362   -3.74076194446975   19.41153069816882
H         5.70695508046944   -4.14353251006391   21.12937659392381
H         7.23544989097250   -2.31819358408002   21.78099256575718
H         7.04191005426288   -0.10734182221906   20.71306743628655
H         3.63650075719182   -0.16809047765144   15.57627379291539
H         4.20823668263887   -2.05226621047350   14.11466936648943
H         6.37244105770421   -3.21926923040519   14.37623441971026
H         7.95004476373161   -2.48258525466080   16.12871688880485
H         7.38102291290523   -0.59803724352056   17.59528855643994
H         4.34203908185906    3.64139227184471   12.55577648123110
H         6.11535802485160    3.76096608537283   10.86712624062853
H         8.31638400034859    2.72975775080670   11.29008443772065
H         8.74247922886280    1.59394807636260   13.44325143713650
H         6.95197466609494    1.46419645449036   15.14324786883375
H         2.92875899529824    2.61403727064804   16.83776605068811
H         3.95472093042857    0.24240291451317   13.10723679783327
H         2.92430110467243   -0.31955205332419   10.94123228357236
H         1.11048116808478    1.08449508109795   10.03296018036009
H         0.31526191883985    3.04156294975547   11.30908369389620
H         1.32464687139635    3.58366559102472   13.49039443229576
H        -1.42679897998819    1.92266971862634   17.93465481783796
H        -1.63198381359280    1.23646357289961   20.28577200661799
H         0.29478592712988    0.24625575615415   21.46332959178466
H         2.44635784504088   -0.04722435828869   20.27974706922931
H         2.67254089896542    0.67020602540877   17.94511393189129
H        -0.64203334674976    1.29145295682819   13.50776923887472
H        -0.88988695804923   -0.73092652108476   12.13286611306163
H         0.08031069133360   -2.86959529949226   12.88597984375401
H         1.27273353125999   -2.99039060211360   15.04484991387885
H         1.51150041110224   -0.97042723253995   16.43265118176990
H         0.90845155270835    4.59107520960204   15.83443475931681
H        -0.81308221718176    6.34108164338605   15.46304600385750
H        -3.16578346243235    5.68576678686441   15.10984239377041
H        -3.80609141641044    3.30750449450698   15.14712582680913
H        -2.09586845566160    1.56998891248083   15.52620603110758

