37
CSD_code = RODKAY | q = 0 | S = 0 | Stoichiometry = C16H14BrMnN2O2S | MND = 6
C         7.92881667829653   -0.14641563967163    2.35017170866392
H         8.38347601042718    0.16867484604719    3.28278740322118
C         7.87651314077908   -1.48164499062720    2.01483635233986
H         8.29055118899942   -2.21853962927585    2.68335462732991
C         7.27254804228493   -1.85935141669562    0.81626722360322
H         7.20490560847119   -2.89838158585103    0.53509391237141
C         6.76758560184913   -0.87377202940101    0.00012205210242
H         6.30158367910336   -1.12472648082101   -0.93881573782061
C         6.85834384141915    0.46680969847054    0.39208656346872
C         6.42598847312304    1.57377912121617   -0.42996496897704
C         5.62902107466120    1.32041872054504   -1.67156481820926
H         5.12662284014662    2.22704708213684   -2.00194515747866
H         4.86897854792142    0.57163218694358   -1.45212335957728
H         6.25546080025968    0.94466509436506   -2.48130299956916
C         6.59370933286566    3.93980611728500   -0.62581946793690
C         6.82508787554072    4.07408012207331   -1.99827160874083
H         7.15096480348448    3.21928313917021   -2.56992568587244
C         6.70480392757003    5.30456532479262   -2.61464226107623
H         6.89204969872673    5.38637777717588   -3.67448170104273
C         6.34717414162723    6.42581308695225   -1.88403868924848
H         6.22956929000370    7.38059009157921   -2.37200793461611
C         6.16704682395018    6.32423516668969   -0.51547681478108
H         5.91533312479914    7.19680947380309    0.06664889022688
C         6.32733288098841    5.10250619268519    0.11159078219045
C         7.35671603861532    6.29421013588935    2.37968215308428
H         8.26320151389521    6.23045654732966    1.78666662620891
H         7.58089026118544    6.11861765391124    3.42792869577955
H         6.88019324651868    7.26291575451829    2.26137431343330
C         7.38265252432009    2.62387021930039    3.73963070051692
C         8.76710804568653    3.29546844916704    1.85265845874177
Mn        7.11454055772459    2.69643074473658    1.98461568978452
N         7.42508398825856    0.82858127120572    1.58122561965042
N         6.73081760858466    2.74315321851985    0.06194945023395
O         7.58623770701789    2.61989832535112    4.87445576506628
O         9.83672661482374    3.73364423431512    1.82583866061178
S         6.19230541866418    4.97828191010926    1.89042282001260
Br        4.75185904739707    2.18321006606460    2.33937273630778

