53
CSD_code = RODNAZ | q = 0 | S = 0 | Stoichiometry = C21H26I2NOPPd | MND = 4
Pd        0.59258517628233   15.82878276160880    6.11046309541110
I        -1.53371172989657   15.21232622156929    4.78648679786757
I         2.22750350190293   14.92104470582798    4.28661454715490
P        -0.55496222201659   15.91668876999924    8.03774891071385
N         2.22780717724572   16.76620293044300    7.33493192526080
O         1.08148464133008   18.29450476418830    5.36203481365194
C         1.61152178380293   17.38059828565233    8.50889959959870
H         2.38610852240199   17.80259886101131    9.17017144222215
H         0.91252824639367   18.17533401375294    8.23138697311822
C         0.91285794567486   16.18444737575003    9.14941997985664
H         0.65262055180105   16.34292947403727   10.19897439652315
C         1.91196886505667   15.03029670238025    8.90055105113954
H         1.40894347910631   14.16783085864984    8.43757349815166
H         2.39192244388949   14.69006075038709    9.81824545173771
C         2.93638104924831   15.62846258417684    7.92396534056656
H         3.82580064228454   15.98424210899841    8.46859508336200
H         3.26293842280969   14.92034166677667    7.15659172994461
C         3.08801451696738   17.66901579914730    6.57942679115278
H         3.58630371311166   17.09009209135925    5.79599444126407
H         3.85710593313015   18.10677140174382    7.23577600442534
C         2.28047364804239   18.81126598248772    5.92669683208427
H         2.00123927441432   19.54179828181680    6.70150626319322
C         3.05502106613574   19.48239479119122    4.78304255416117
H         2.84111497743385   20.55169816168342    4.76711400105727
H         4.12898558272083   19.34201697276726    4.88426759398301
C         2.47977966646537   18.80628717312046    3.53860935552679
H         2.97857274497791   17.85611484049935    3.34840434969164
H         2.55096788611669   19.42598007438345    2.64908440890944
C         1.03578748368874   18.56738630940938    3.95981415767368
H         0.42049104707868   19.46341003474305    3.79675494957571
H         0.56800381367908   17.71311615671899    3.46159241993495
C        -2.26058663184553   17.58143988676631    9.51440741492244
H        -2.17369314581877   16.85112494461429   10.30801188840878
C        -3.03638981679978   18.71245917758406    9.68100279195168
H        -3.55525752479447   18.87559391662933   10.61419654639910
C        -3.15558847314631   19.63360268334552    8.65052453201226
H        -3.76902615131914   20.51190693170028    8.78602459181965
C        -2.49877078021255   19.42812768645818    7.44860377827348
H        -2.60046207813304   20.14256836722889    6.64546900349708
C        -1.71764918992652   18.29938977647452    7.27477877288021
H        -1.20225787437551   18.12194689958886    6.33356975027883
C        -1.59538656149225   17.37722329971835    8.30901827202352
C        -1.10743734477855   13.82056346178058    9.86366265940512
H        -0.12300505959008   13.96309230318905   10.28561491389931
C        -1.93835170429219   12.84638509709243   10.38845739070038
H        -1.59198259746485   12.23854495647860   11.21171974303370
C        -3.20343000956878   12.64682633806634    9.86168993154755
H        -3.84246023363415   11.87948071072737   10.27208811691785
C        -3.64696027879445   13.43014171498732    8.80796562535367
H        -4.63103921108963   13.27685765639672    8.39238448297022
C        -2.82665064499652   14.40867322141343    8.28155972575923
H        -3.16795867148559   15.01914337929199    7.45640235891023
C        -1.54981586778251   14.60866668398132    8.80570895002706

