67
CSD_code = RODPAB | q = 0 | S = 0 | Stoichiometry = C24H36ClOReS4 | MND = 6
Re        8.19308480171954    2.69333370300767    9.65803762364853
S         6.19094583155425    1.04572924953645   11.14839873466369
S         6.08913271499925    2.10199203269983    7.66720095864041
S         9.58956172012648    3.99308917457573    8.25298064780806
S         9.73864133133782    3.32234567461386   11.33577962364171
Cl        9.02742520826886    0.80252892121735    9.20645975460633
O         7.00448505393335    3.81024513117542    9.96883825817161
C         5.02004661976541    0.65080828185482    9.79652866840160
H         5.47757463487279   -0.17667163753043    9.25531717696829
H         4.10307964416273    0.30171706203984   10.27280863349106
C         4.72482531946104    1.80540338384594    8.86020790234158
H         4.58712872696883    2.73816416765899    9.40768197705077
H         3.82935045959388    1.58030335814235    8.27925502538118
C         5.69733176491775    3.82885280147356    7.22026570290133
H         5.62026548426779    4.38223764061445    8.15705073917600
H         6.57276619915968    4.18193163315219    6.67832916583342
C         5.13878260843716    2.13947233737333   12.17546635353944
H         4.44193355246293    2.64650167036371   11.51046754254271
H         4.58693363391118    1.49372908967927   12.85998280070814
C         9.30038133286446    2.47096909606970   12.81428709827084
C         9.03724636206481    3.74584716251131    6.59593129384770
C         4.45492536577468    3.95589428228401    6.35607188737338
H         3.59306459179008    3.51351201367056    6.86039105381779
H         4.24762567034342    5.02069616437800    6.22411393955551
C         4.64336227662669    3.30173929551203    4.98993083648211
H         4.90643317165753    2.25158228318223    5.13268126923057
H         5.47886215122344    3.78407239903044    4.47954358236763
C         3.38841011825578    3.40701011757783    4.13323987434595
H         2.54980094726648    2.91039132609127    4.61681152213191
H         3.54793755242042    2.94201259635532    3.16370196871747
H         3.12176124124104    4.44944202007820    3.97347231028490
C         5.98720986655577    3.14923594828549   12.92514680135235
H         6.59871265479161    3.69718768300629   12.20014249763835
H         6.65808329832127    2.62326795140220   13.60476135975445
C         5.13188358134552    4.13369052727667   13.71856043214160
H         4.50549509009913    3.58508003090092   14.42678838249371
H         4.47137645076893    4.67495989728458   13.03753828349882
C         6.00873217013492    5.12541945711152   14.47126916712068
H         6.65889032332383    4.60119253467745   15.16750623421482
H         5.39856618594292    5.83201603214625   15.02890382808985
H         6.63179843591121    5.67831728360196   13.77310595006291
C         8.99339234452794    1.11504281950702   12.83627194791690
H         8.99002155152095    0.54590107852878   11.91883692701405
C         8.68582305855856    0.49420320593519   14.03084432306230
H         8.43441841352880   -0.55672190487531   14.03250508220585
C         8.70082133408833    1.19830976102316   15.22982100902644
C         9.03879872867140    2.54734234430730   15.20156098624699
H         9.06598923939261    3.10863264349930   16.12500983999719
C         9.33031776513693    3.18265848501757   14.01096499364360
H         9.58197661673388    4.23129864105766   13.99129017117375
C         8.38606191467088    0.51191083484611   16.52378184871521
H         7.64920079961030   -0.27454025039278   16.37669588803892
H         8.00806793658318    1.21977306971215   17.25772513429891
H         9.28838619676674    0.05421890484593   16.93067892433277
C         8.89797635922809    4.86316747438841    5.77552754636593
H         9.09721750179931    5.84138602207740    6.18481068197902
C         8.51156926470158    4.71296852599325    4.45744090976679
H         8.40834393354026    5.58832902540436    3.83187306173450
C         8.24507724823237    3.45522022707291    3.92851829042303
C         8.39717274188641    2.34455174120001    4.75236074348254
H         8.20262386751129    1.35833862541406    4.35643726967827
C         8.79871101654226    2.48106358476364    6.06574807753902
H         8.92494954023010    1.60479474462706    6.68315855536064
C         7.82391324434849    3.28719904468738    2.50062725686583
H         7.50252716759259    4.23368627871805    2.07405734222632
H         7.01083498373861    2.56876730745042    2.42069648865923
H         8.65795308220689    2.91254798727778    1.90779983796635

