111
CSD_code = RODQOQ | q = 0 | S = 0 | Stoichiometry = C57H47Cl2OP3Ru | MND = 6
C        -2.19767551440337    4.37775230264177    2.54247529530053
C        -3.28136760311315    4.90034597507459    1.84502888582830
C        -4.04291273709310    4.07356162223373    1.01783389386771
C        -3.74546614614627    2.73550053123306    0.79631428318959
C        -2.67316313260352    2.17322777673872    1.48116739171439
C        -1.90409889877156    0.94064587314208    1.49225998662162
C        -1.85718339177349   -0.27055601917889    0.80981611494653
C        -0.78303324292344   -1.11628439688217    1.04540710962194
C         0.26763570638803   -0.80310557751626    1.90979380376446
C         0.25050621747663    0.38684440763148    2.62659697187022
C        -0.86430459928051    1.17935005738145    2.41087268353426
C        -1.99723732485746    3.01803890002869    2.38276705047274
C        -0.22445967128730    6.46160280072673    2.37439984145966
C         0.67901669986883    7.37562461691816    2.91432096832546
C         1.27684762859698    8.32450699257386    2.10784036025743
C         0.98791953550356    8.35992714813693    0.75288332377458
C         0.10457492719388    7.44219699545212    0.21007372222860
C        -0.50012100245552    6.49099980034468    1.01324064955771
C        -1.86951251888970    6.11962906898325    4.69038175528899
C        -2.02107261407432    7.49966000578389    4.67993964048582
C        -2.84690362575217    8.10645542165354    5.61021794481151
C        -3.52578167007467    7.34526580275571    6.54648411653909
C        -3.37972764968839    5.96681926763649    6.55537079044816
C        -2.55484539383210    5.35499817507558    5.63191702201516
C         1.39681518285040    0.04616753122568    5.16342957533551
C         0.18104978512255   -0.51850687077477    5.53807873266191
C         0.10958016855387   -1.33452761048861    6.65087040758159
C         1.24612952488960   -1.58962606779822    7.40041042123306
C         2.45639948464301   -1.02569398912570    7.03358539574105
C         2.53281372432938   -0.20669159013771    5.92280555453603
C         3.06660258111076    0.80730694590740    2.99558782845158
C         3.81415936648080    1.85232325867084    2.46658333511429
C         5.03733390791486    1.59983722528443    1.87171142792838
C         5.51761037327861    0.30303881370365    1.80301779645533
C         4.77668110613253   -0.74129188820474    2.33510182167025
C         3.55552436256682   -0.49457347758211    2.93364455146828
C         1.75223255381309    5.90500637444764    5.98454985417446
C         2.42149841815813    7.12365318654160    6.05088932326415
C         1.90768294224124    8.16337992363424    6.80565242501242
C         0.72398045800516    8.01923340147418    7.51662396874699
C         0.06609887901959    6.79606441164049    7.45919711560660
C         0.56333218208185    5.75792473572588    6.69733481076100
C         0.15567216277960    9.14434354635446    8.32528019929147
C         3.67895769515942    5.28272627038906    4.02604827973500
C         4.88861119551617    5.59645309406418    4.64468851329692
C         5.88116334714124    6.24778362913467    3.93930295605108
C         5.69412376033028    6.61377679808996    2.60979129719349
C         4.48232569282459    6.30951004049320    2.00336527241717
C         3.48503237839894    5.65350464270962    2.70099588718125
C         6.78406308229406    7.30179891729795    1.84609203871426
C         3.20467830798908    3.45582733260923    6.13775351249542
C         2.70747104238729    3.25388794341241    7.42092489748694
C         3.37146349427762    2.42142395616340    8.30121726571788
C         4.54640399080461    1.77755879514001    7.93233117916056
C         5.02836379688930    1.96792956151175    6.64234594858906
C         4.36087059506393    2.78361836596180    5.74821122272270
C         5.28371169870764    0.91203100414008    8.90823588101298
O        -0.99634546687179    2.37663692666383    2.99809558397486
P        -0.84789841629467    5.18470558491913    3.50542982817030
P         1.46741089558443    1.20219543928252    3.75938729607395
P         2.30777757631072    4.50274351554875    4.94186881729786
Cl        1.07848660184857    3.60834063765707    1.51948811219052
Cl       -0.39639665118405    2.60633085210651    5.93651540263956
Ru        0.60446646658062    3.38344222287286    3.89499001134216
H        -3.51559273105543    5.95229771351019    1.92065591916704
H        -4.87623121952433    4.51125442852798    0.48763246112325
H        -4.32074750836435    2.15652093469289    0.09029583982513
H        -2.61794923976890   -0.53616849628051    0.09208316770196
H        -0.73470886076672   -2.05106406367176    0.50617422814337
H         1.10402211618232   -1.47958774372318    1.99262121716601
H         0.91559829128250    7.32436652368646    3.96952496426107
H         1.97764826577762    9.02744473136532    2.53477883814164
H         1.46009024605750    9.09578218646543    0.11818048570460
H        -0.10828401339887    7.45814710958287   -0.84910096868498
H        -1.16800116817727    5.76319800740534    0.57602487599057
H        -1.49886529395875    8.10140179483698    3.95025089734043
H        -2.96174042268567    9.18113766284726    5.60042397792851
H        -4.16750969936048    7.82633293535192    7.27074112725523
H        -3.90581402204901    5.37017352725022    7.28619340991459
H        -2.41306482982877    4.28178289883360    5.65000039370358
H        -0.71248407136781   -0.31161673940714    4.96356599003006
H        -0.83771310925464   -1.76683293929292    6.93859625456226
H         1.18636592248489   -2.22470423385366    8.27239712146499
H         3.34501076013333   -1.21935892680753    7.61626819252921
H         3.47417536322736    0.24058366235860    5.63891116782463
H         3.42382692194586    2.86110239690686    2.51814824941841
H         5.61346695900262    2.41739619996915    1.46319299773153
H         6.47190415418356    0.10224243387344    1.33784277993021
H         5.15542878260324   -1.75233579041904    2.28553671128571
H         2.99070864658102   -1.30714283478673    3.37011831285278
H         3.33746518796185    7.27581032682633    5.49926562372134
H         2.43642018462469    9.10636872259549    6.83414857880943
H        -0.85744088943484    6.66200285665059    8.00402306333615
H         0.02236534515682    4.82325311636414    6.64551908706341
H         0.19260445820516    8.90060848143810    9.38682850583274
H        -0.88723415110926    9.30962000834431    8.05891147616193
H         0.71173486169915   10.06433273674418    8.16279307158155
H         5.04888041201991    5.33196086362627    5.68104660989784
H         6.81615753136916    6.48291240114359    4.42930406447216
H         4.31300935616296    6.58845282579168    0.97314539361229
H         2.55209306817485    5.41403409137240    2.21267937451759
H         6.36838665893571    7.95579059563490    1.08295711256963
H         7.41642240933877    7.88676550201106    2.51029608706874
H         7.41234230207636    6.56227119146722    1.34803537679496
H         1.79697991594074    3.74596135341699    7.72742507884889
H         2.97191104075582    2.27009161933629    9.29396479197013
H         5.93369039914708    1.46468339157077    6.32956327230932
H         4.74219546276830    2.90400213758568    4.74320189864464
H         4.59109406141347    0.41774999298816    9.58594119398970
H         5.96075218316847    1.52183359016720    9.50802597171742
H         5.87735773585136    0.16013987643469    8.39252840038037

