56
CSD_code = RODQIK | q = 0 | S = 0 | Stoichiometry = C19H25CuN4O7 | MND = 5
Cu       18.14269239254944   24.16234349969417    6.39758270986911
O        19.60737652609595   24.32009646189028    5.39583761367606
C        20.70222692725423   23.72014577607849    5.57675219240650
C        20.90958221304611   22.56906859026449    6.35213305594194
C        19.84126743069530   21.98879067900758    7.05831378870709
O        19.99021464813175   20.78701585594526    7.60327891463772
C        18.73542235314531   20.39293604745023    8.15001558633020
H        18.35572676766187   19.55240793049392    7.56096821073901
H        18.89519155151389   20.06615692378337    9.17931048512968
C        17.83925598563081   21.64492406363462    8.05146973879051
H        16.90658720180860   21.43932822180488    7.51760236909965
N        18.66203524631606   22.53332137478061    7.23318799950073
O        16.55273550081686   24.00877233723211    7.15188868745410
C        15.99045409880159   25.01147649693302    7.70456740848319
C        16.57944569460623   26.07589908643579    8.38440184925618
C        17.98227099829281   26.31851137950336    8.45132700055202
O        18.38874333114357   27.46239717140640    9.03257224818006
C        19.80544528234275   27.50503882863235    8.94470096242567
H        20.09506947944845   28.42622270645517    8.43371022362004
H        20.21669755518256   27.50940833714517    9.95915009074421
C        20.19071502524461   26.22358820554204    8.16573956023564
H        20.59184426590494   26.46945835590212    7.17175381275678
N        18.91307882875452   25.55566759901301    7.98545425981474
O        21.78339440667612   24.16780381789021    4.94346839719479
C        21.63833503139864   25.29402002630845    4.09226262805923
H        22.64189735097726   25.52198546411221    3.74131143166448
H        21.21947008189466   26.14241942375284    4.63715675236826
H        20.98623164293648   25.05752402204249    3.24904276909853
C        22.17592466973402   21.95582459411586    6.37702912849124
N        23.20927604935825   21.46029762219567    6.41205486482991
C        17.50692943828189   22.22972439154930    9.43214282952594
H        17.07063341376251   21.42610783886180   10.03072565391933
H        16.75518719693780   23.00761641453901    9.31258300126006
C        18.72173969150846   22.82327105227199   10.13161674163514
H        18.44459332595300   23.16761954581296   11.12474470532803
H        19.08356493545888   23.67163263494370    9.55680554121208
H        19.52507947299737   22.09609548351013   10.23264612290895
O        14.65250186725181   25.02639048788627    7.70363515482546
C        13.99271255580078   24.01303357044354    6.96358556512184
H        12.94161607858660   24.29188129552900    6.96492429477556
H        14.12673102037236   23.03777119718437    7.43851523684499
H        14.38119603019997   23.97054751411082    5.94422395657077
C        15.73747822773136   27.04761017612385    8.95599171220176
N        15.06470128862057   27.83967116662159    9.44306771288908
C        21.21166735159703   25.34487586229804    8.88966940479558
H        21.21559568324102   24.36169664597340    8.41441572404515
H        20.90328199830633   25.21700882979619    9.92977014944470
C        22.61183591611824   25.94211731220255    8.83092811632437
H        23.31234263948920   25.30205992245699    9.36059893076769
H        22.63278848228544   26.92995043117900    9.28598486053144
H        22.94583468250280   26.02926201484342    7.79934122269728
O        17.33176828147205   25.49403199530131    5.42634390224044
C        18.03317236005700   26.42208876118107    4.68397547999365
H        17.27501825861549   27.10430297376017    4.28124871689232
H        18.57898267243408   25.97062573203633    3.84629425531351
H        18.72823859306704   27.00955585016090    5.29987626788196

