84
CSD_code = RODSEL | q = 0 | S = 0 | Stoichiometry = C35H45ClOSeTi | MND = 12
Se       -0.00450846562424    2.36385616210781    6.16784557237902
Ti        2.35812974677472    2.74272296461828    1.31178868800592
Cl        0.51309121264318    1.77113663717005    2.15025239083568
O         2.98100033479174    3.39658556233575    2.76582024869518
C         3.60500715734106    0.88032992649622    1.76834711512522
C         4.48101395842810    1.82790727265902    1.16565151347848
C         4.09307700940312    1.98434736958270   -0.19298417867517
C         2.98482709451284    1.12892816143864   -0.43257051600938
C         2.69249820104856    0.43838873338578    0.76269856971334
C         3.76931785894823    0.28484215488691    3.13586559497271
H         4.12688008569750    1.03413897450124    3.84284331663427
H         4.49842684789302   -0.52897019253092    3.10548324116457
H         2.82690520851153   -0.11874873108437    3.50500994867127
C         5.70525664541380    2.41537895657980    1.80251770266648
H         5.94407325864297    3.39023146479616    1.37782659953058
H         6.56322918060225    1.75727978135212    1.64295775618464
H         5.56119976304290    2.53341962118580    2.87521815333313
C         4.92420703317961    2.67387598285166   -1.23550871980668
H         4.33417157401359    2.99664102668204   -2.09079455197561
H         5.68601957210987    1.98065948016253   -1.60171506733358
H         5.44080266202464    3.54136873883309   -0.82800529624566
C         2.33202529998216    0.82588313293173   -1.75081587746746
H         1.25239633359174    0.98832698583782   -1.70897664323391
H         2.49692934530412   -0.22185609101520   -2.01037863361222
H         2.74523421570103    1.43574923935974   -2.55122855858560
C         1.75062426930608   -0.72310857441887    0.86315695295612
H         1.49164833840073   -0.93401804505009    1.89784887052228
H         2.22602121484665   -1.61160229056307    0.43840806600634
H         0.82937812580240   -0.53400981560816    0.31311712575290
C         1.90104124504411    5.07591886177439    1.34003018283838
C         0.62115188498018    4.53792259508210    1.11774213814388
H        -0.25429653229409    4.66982510493177    1.73853135699908
C         0.62291623628016    3.84778705824860   -0.11321817799503
H        -0.24686254632164    3.40482403844837   -0.58201934722724
C         1.90294934282957    3.95315491996924   -0.66773144821849
H         2.17099532550447    3.68089540318294   -1.67835000928085
C         2.71503489912669    4.67754077015660    0.24215378095042
H         3.72084055024553    5.01546996950446    0.03574653868613
C         2.37925550373165    5.75807038831213    2.61106623660113
C         3.58550723002912    6.67678275349990    2.27045273060560
H         4.42531747903361    6.05711042058212    1.93364182348706
C         4.06178290888466    7.57414504685889    3.42051365201758
H         4.47006301625819    7.00962651577575    4.25181710780186
H         4.86652169314034    8.21058982348944    3.04099795810473
C         2.91516538030463    8.44833609165723    3.91633809527799
H         3.24883170204356    9.03473013573223    4.78024360597954
C         1.75390823385408    7.54831585716822    4.32930612143094
H         0.92103768282071    8.16070038324928    4.68374027385098
H         2.06610737720077    6.90949377887108    5.15603546332893
C         1.27782709551767    6.71085102944717    3.13978980494108
H         0.39591031761584    6.14274780763470    3.44025970399069
C         3.17979212818051    7.64264105691951    1.14256484709627
H         4.04419567402121    8.25477692229681    0.87144710937786
H         2.86038170973528    7.10522165470746    0.25079521872426
C         2.47886788743202    9.38838426228100    2.79740993558098
H         3.30835840045606   10.04000047906258    2.51252141965685
H         1.65541403785270   10.02225665897033    3.13388103349099
C         0.85455556563226    7.67411809006801    2.02306176851451
H         0.48334103116855    7.11689654368087    1.16211145624174
H         0.04203563994130    8.30684773662768    2.38851590094072
C         2.03651495717469    8.54355709267969    1.60693140640553
H         1.73646399148279    9.19941690777486    0.78165968337020
C         2.70895292213613    4.49550298039290    3.57329416629374
C         1.47375436371481    4.13016070901113    4.44189089651957
H         1.26122953937072    4.92608691090983    5.15641977129470
H         0.61432538603229    3.99899205256676    3.77940533140696
C         1.65736247448573    2.81984155069625    5.19085157599441
H         2.44614269944867    2.87407388037045    5.94286044075444
H         1.85225998966782    2.00565303767539    4.49160631074786
C         3.93408197846892    4.65494956858963    4.49122493588738
H         4.15346570297171    3.68035119102451    4.92438307383519
H         3.74917419385637    5.35457759709480    5.29958642974650
H         4.80505696452550    4.95444488036978    3.91602421493108
C         0.23769015911814    0.44904725745604    6.23841277044879
C         0.26508786271849   -0.19503246455256    7.46645329177056
H         0.15470621486318    0.38007696462980    8.37478258891091
C         0.43285081986523   -1.56779916376525    7.51601409219510
H         0.45609742237855   -2.07109245145102    8.47179567126125
C         0.57494579517031   -2.29323680801119    6.34535149617566
H         0.71019425154672   -3.36422505184258    6.38609765897705
C         0.53199418282234   -1.64542540306969    5.12116201595696
H         0.62288085281914   -2.21476578024008    4.20673164559654
C         0.35340414796367   -0.27510769097429    5.06115417780678
H         0.28523194482183    0.23148548499403    4.10873068807193

