29
CSD_code = RODVIQ | q = 0 | S = 0 | Stoichiometry = C12H12HgI2N2 | MND = 4
Hg        1.83598536165284   10.83570056422152    8.52149487450818
I        -0.36776509052033   11.78002241792979    7.48379105494042
I         4.17165513367069   11.08472317361454    9.66655008841966
N         2.42999324695918    8.79653224541793    7.20152737314170
N         0.80019735355419    8.74554548670513    9.43546961723854
C         3.40555889255346    8.81457368423970    6.30823783311486
H         3.68275197437212    9.78963213839367    5.92619588329844
C         4.06996327597967    7.67772510912238    5.85738865115648
C         5.17639076900192    7.78519871771662    4.86251520244679
H         6.05179325575083    8.23414506987097    5.33169452312783
H         4.88343426577502    8.42305025150286    4.03089516566298
H         5.45285858196670    6.80586684342988    4.48075540542897
C         3.66960235546793    6.46206310173136    6.39922985188093
H         4.16116005460392    5.54662767620089    6.10300795333324
C         2.64261315228787    6.43103641335992    7.32382357006004
H         2.33935171516026    5.49649634009092    7.76814110685873
C         2.03116537929037    7.62331787951513    7.70502763295218
C         0.93711709654675    7.64347051892117    8.69001530573886
C         0.07151026392911    6.56208938216324    8.83786871075095
H         0.16301405469055    5.69913576499666    8.19771787800651
C        -0.93073988528676    6.62192528249310    9.78781680790285
H        -1.61577699899704    5.79486360203275    9.90698302443960
C        -1.05476907450941    7.75331572031223   10.58527696344065
C        -2.11018460494462    7.88407169470641   11.63153281676772
H        -2.84860810637121    8.62365342893669   11.32279122929646
H        -1.67671478463656    8.22211492495735   12.57094256883940
H        -2.61615832441966    6.93607909325662   11.79407957743177
C        -0.15541105278838    8.78880172525259   10.34909428534760
H        -0.21278826074050    9.69892174890744   10.93453504446811

