51
CSD_code = RODWEP | q = 0 | S = 0 | Stoichiometry = C22H14Cl2F4N6O2Zn | MND = 4
C        -4.83217212043385    1.40527373933494   -3.07124833279009
H        -3.83372772122793    1.57336630402011   -3.44858192136146
C        -5.07873283746143    0.53793791295007   -2.01136318178384
H        -4.29320062818329   -0.00151029773637   -1.50085171864467
C        -7.30668239247747    0.98138364941045   -2.17733568549353
H        -8.31671498304669    0.79623465349101   -1.83953646652246
C        -7.04444225973213    1.87175844041589   -3.21779087421832
C        -8.16262620645094    2.64927360068820   -3.85367818036160
C        -8.44972258768705    4.21265490812751   -5.74729878339944
C        -7.76582624257294    4.88802246983650   -6.76439290748722
C        -8.39767207700888    5.74438613275689   -7.63989297740507
H        -7.82241087716384    6.23925803825369   -8.40531612403453
C        -9.76143476821505    5.95180864837971   -7.51732339234458
H       -10.28977638376110    6.61406947916708   -8.18281377067149
C       -10.44245974742803    5.28586134682381   -6.51342238555194
C        -9.81977252273849    4.42377953703589   -5.62855971979822
H       -10.38629737041376    3.92451998416620   -4.86024254892375
N        -5.80672977253744    2.06882973840707   -3.66400415318777
N        -6.31854671076199    0.32771247975955   -1.58045302992564
N        -7.72438437388560    3.36963186020911   -4.91623664844462
H        -6.72850280998308    3.29240057216069   -5.10833487945332
O        -9.29378536586010    2.61200098884813   -3.42368832271702
Zn       -6.67460012581727   -1.13482683770954   -0.00001983775305
Cl       -8.72813003970237   -1.82682252430602   -0.36829184941554
F        -6.43215989191332    4.68259143186016   -6.87996638926757
F       -11.76534529556349    5.48450074619424   -6.38817213552337
C        -8.51689637297779    1.40470589723795    3.07177069928872
H        -9.51530053842859    1.57267688318439    3.44926098305041
C        -8.27040467820594    0.53745275717819    2.01180185150620
H        -9.05595827113640   -0.00203047817720    1.50135981201320
C        -6.04247825583570    0.98112238400648    2.17746398890183
H        -5.03247326101031    0.79606687164348    1.83953182940375
C        -6.30465992777266    1.87144341898746    3.21798019687871
C        -5.18645734041355    2.64906643855716    3.85369804771633
C        -4.89921207416340    4.21257211727877    5.74718748167029
C        -5.58299262032573    4.88785586768419    6.76441625138911
C        -4.95108016513299    5.74430997230977    7.63978208826046
H        -5.52625366219487    6.23912118369555    8.40531202339618
C        -3.58737129468838    5.95191801136009    7.51692617133578
H        -3.05898135410617    6.61425406325283    8.18230373775766
C        -2.90646461219943    5.28605852299633    6.51288608816379
C        -3.52921658708872    4.42388202458157    5.62816064010987
H        -2.96277831488905    3.92468287680616    4.85974201012491
N        -7.54232438260596    2.06836334783057    3.66439164435827
N        -7.03063333904262    0.32737767133081    1.58069775716941
N        -5.62460525816636    3.36943824767576    4.91628144604165
H        -6.62044287983370    3.29209483585222    5.10856238349888
O        -4.05536353861269    2.61189501802630    3.42352438992061
Cl       -4.62105676073632   -1.82685171431949    0.36815241954702
F        -6.91660760253795    4.68225638006053    6.88026046574266
F        -1.58363079584600    5.48487039842515    6.38736180923815

