27
CSD_code = RODXIS | q = 0 | S = 0 | Stoichiometry = C8H12CdI2N4 | MND = 4
Cd       16.33840806085780    8.29221079156908   15.22405675511709
I        16.80007867306200   10.01185033898070   13.21092164368178
C        21.97033702182264    9.02525122661149   16.13508429255488
H        21.91721596113798    9.86828183594919   15.44888629943060
H        22.59879523256770    8.24828949413835   15.69574617630168
H        22.42339142675712    9.35379588584765   17.07217949974092
N        20.64740427561049    8.52048391147139   16.37145696305805
I        15.46744837933608    5.77894198152292   15.61751477199750
N        18.46915074649721    8.26719403478733   16.24134245186077
C        20.31703153008425    7.47990326681536   17.19078510754149
H        21.05090811165822    6.94044978068001   17.75269351354089
N        12.97882900355228    9.79809675236080   17.74857019955180
C        18.96516101460768    7.33284224839373   17.10041604471883
H        18.32539574659870    6.62201904366088   17.58766259215719
N        14.81866757919076    9.46967215320833   16.59403866235575
C        19.50462276435453    8.96031350338865   15.82169891085925
H        19.45896360165686    9.77890849075669   15.12766152367635
C        11.81862313967758    9.53854693285115   18.55315034813187
H        11.76864593725586    8.47549626786280   18.78085103596646
H        10.91395631407400    9.83041568663372   18.01678065609642
H        11.86993709874200   10.10267819874198   19.48632529209732
C        13.36209510104445   11.01160850441749   17.25482860765685
H        12.80514374062542   11.90599262643041   17.44250493882882
C        14.50241758006843   10.79413067415401   16.54077805706008
H        15.10610735489507   11.49424681781960   15.99542115390288
C        13.88390226540649    8.90242412844567   17.32421785966877
H        13.83576233884100    7.85575542248351   17.56082664248663

