99
CSD_code = ROFDIZ | q = 0 | S = 0 | Stoichiometry = C44H44O10Pd | MND = 4
Pd       -1.92900825234430    3.26939004115210    3.98663269113338
O        -4.51459874645383    2.66370773456042    5.05483414783138
O        -5.39292497045156    2.50487732692082    2.97812762881001
O        -2.91311825627060   -1.60039407151648    4.93708988117266
O        -4.78145834125703   -0.42520567431306    4.44731348186747
O        -0.47919016716851    4.86644581760376    4.48376326221274
C        -3.15013407131002    1.77563498585034    3.40388185431085
C        -2.64263415676941    0.37857167939113    3.74993552463980
C        -2.91848965288173    0.80997330606646    2.29491109289983
C        -1.73805020940280    1.00010125882725    1.36056679380464
C        -4.09752747957693    0.17920838141556    1.58133933912981
C        -4.48419001906963    2.27296189599425    3.74306887406518
C        -5.69323159976219    3.19098850816973    5.55525582401128
C        -6.87679767077636    2.47085173576731    5.50207307575124
C        -8.02379823701207    3.02398781169114    6.04290239171064
C        -7.98738940978363    4.27661292528980    6.63282915834830
C        -6.79826682148774    4.98512622557336    6.68512514522732
C        -5.64586794340733    4.44661912502593    6.14286005811363
C        -3.58297496724617   -0.56774909393423    4.38915413107168
C        -3.56147572924608   -2.65611616043843    5.55130161337133
C        -4.75580877650232   -3.19194373600894    5.09220624251439
C        -5.30463451980556   -4.28101362337965    5.74738427336941
C        -4.66962093153114   -4.83948112351731    6.84259000969655
C        -3.47042258105411   -4.30791642513906    7.28800085320765
C        -2.91502950313901   -3.21754577754008    6.64696512140153
C        -0.09321008129747    4.92685472803306    5.63599484288578
C        -0.89439468360863    4.35089550361023    6.76583896884273
C         1.23342852390171    5.52758440769502    5.97912293125851
H        -0.97320994049368    1.63715593191926    1.80413174329424
H        -1.29064225357744    0.04179444151693    1.10297370126582
H        -2.08378642472051    1.45981515524367    0.43538015031013
H        -4.93590090457324    0.02539178704960    2.25195737481889
H        -4.43281955214724    0.82951263223124    0.77552589143897
H        -3.80118180525877   -0.77848667576314    1.15427269021955
H        -6.88115171765505    1.49386362848705    5.04428478957329
H        -8.95078514713397    2.47165037113845    6.00505545924525
H        -8.88691400992320    4.70200084518845    7.05270783981111
H        -6.76933257095023    5.96256838184291    7.14411035321402
H        -4.70809577516185    4.98317146344767    6.15622554455684
H        -5.25190252269508   -2.76006169316709    4.23855852469737
H        -6.23608328557815   -4.69643413516760    5.39281370292597
H        -5.10525091846210   -5.68894955952020    7.34682182798724
H        -2.96656410425027   -4.74174935075051    8.13886485844984
H        -1.98005199647550   -2.79148026850286    6.97691136660070
H        -1.03032099663070    5.08201421734801    7.56033798381698
H         1.54468277247929    6.23958065080868    5.21894775829465
H         1.23573887502872    5.98623224189916    6.96273873475085
H        -0.34293037035498    3.50287203985347    7.17193499400543
H        -1.87342338073132    4.00618654479463    6.38734459963352
H         1.94728042444975    4.70082314644961    5.97483930146972
O        -3.37957299272884    4.86535731220274    3.48956739587013
C        -3.76546982785423    4.92608654214982    2.33731912853601
C        -2.96301006283792    4.35268174790902    1.20706182814763
H        -2.82606421662913    5.08592229495259    0.41465705793192
H        -3.51391491714533    3.50577330986330    0.79794094895933
H        -1.98441119132776    4.00713474170207    1.58588686331736
C        -5.09295861265321    5.52510165598497    1.99456176808870
H        -5.40498213218804    6.23656449545190    2.75492425837769
H        -5.09621978320646    5.98381441749320    1.01098294390621
H        -5.80566968994661    4.69734637416847    1.99907298268411
C        -1.21456945237425    0.37868626979022    4.22290683975476
C        -0.70755969588883    1.77583791220298    4.56934642633225
C        -0.93890846699522    0.80978968112164    5.67805969176743
C        -0.27416686602278   -0.56755098071501    3.58365642875601
O        -0.94415081149666   -1.59998184948601    3.03543449164137
C        -0.29612629945237   -2.65611333322081    2.42162334353706
C         0.89802532250889   -3.19222992597821    2.88085212947346
C         1.44628466180132   -4.28188800815471    2.22616719022166
C         0.81091739798144   -4.84063406110886    1.13130977970094
C        -0.38809756524755   -4.30876704215288    0.68575662935584
C        -0.94293932682848   -3.21784490953009    1.32631896673116
H        -1.87780558950028   -2.79156804133988    0.99632928391320
H        -0.89224415682340   -4.74280162886263   -0.16483362917061
H         1.24614364819851   -5.69052089127484    0.62743456862395
H         2.37759110542342   -4.69754512911670    2.58084099372949
H         1.39441033741885   -2.76017104183304    3.73424254528968
O         0.92432675147843   -0.42513524389378    3.52556179611080
C        -2.11946412736257    0.99903521163373    6.61243903980021
H        -2.88440095040047    1.63622040746910    6.16923370878150
H        -2.56669066396021    0.04046177982372    6.86934535317351
H        -1.77392765799851    1.45817564469523    7.53798430216114
C         0.24038443230226    0.17922226841840    6.39139952476252
H         1.07892482758755    0.02627681618797    5.72078846205341
H         0.57521300784549    0.82921295478571    7.19766009856978
H        -0.05545249620122   -0.77890401853944    6.81785614942202
C         0.62631383664185    2.27377236635969    4.23042720914958
O         0.65676662550647    2.66459085048645    2.91867628259657
C         1.83558301611098    3.19143418722407    2.41822149825677
C         3.01873272777240    2.47058776311537    2.47094702438691
C         4.16589798545767    3.02317164783146    1.92989783095556
C         4.13004947527379    4.27595002554381    1.34026556325820
C         2.94133562636738    4.98519169648574    1.28846928388162
C         1.78877395235462    4.44722995304303    1.83091538700144
H         0.85126425963465    4.98425562942302    1.81788275534458
H         2.91283912041450    5.96271998248220    0.82963028388515
H         5.02970120104340    4.70090222043656    0.92021853413880
H         5.09258812027369    2.47030760869060    1.96741012407261
H         3.02265542450012    1.49350655390312    2.92852366224108
O         1.53481954869245    2.50613427300757    4.99551686746647

