45
CSD_code = ROFGEY | q = 0 | S = 0 | Stoichiometry = C16H16Br2N4O6Zn | MND = 4
Zn       -0.18335166867766    1.10699033529956    4.61801181566407
Br        0.18780474660130    2.13307306184427    2.54880292359691
O         1.23170203703730   -0.25454887942751    5.02623478095698
O         1.02269905426711   -2.05368566151297    3.72229624814656
O         3.86495432005052    1.22618331029306    8.88797513508868
N         1.29508356514228   -1.66069127235922    7.21256398276468
N         2.07832187345173    2.62512873517134    8.92802882978529
C         1.23373643472502   -1.47130999821002    4.76464243859986
C         1.59422950793048   -2.39651481887827    6.03412547188549
C         2.08513603874279   -0.62234105976788    7.52084155832928
C         1.72135817265095    0.30202740943000    8.48036734968734
C         0.50949652435056    0.14162819880462    9.14568641053205
C        -0.27061246453516   -0.96572167346226    8.84327511385874
C         0.13671445871932   -1.84375248872118    7.86302264015070
C         2.67660742860822    1.43431429308798    8.77288408804210
H         2.65827318113856   -2.62252445601835    5.95740084079313
H         0.99802307716712   -3.30336994043217    5.95954256400879
H         3.01833755681025   -0.51803068744130    6.98743901383150
H         0.18487291810137    0.86622234009487    9.87418436567931
H        -1.21395962602496   -1.12778281484481    9.33809001041573
H        -0.47567619593722   -2.67419341240367    7.54980037912209
H         1.13270603530744    2.76981827138677    8.59890212828762
H         2.67004304790178    3.43374786411642    9.03944250052693
Br       -0.55328110345331    2.13319404551942    6.68734586543623
O        -1.59826664950855   -0.25466468971760    4.20979177658621
C        -1.60002712976162   -1.47144051962993    4.47138194360030
O        -1.38904419695463   -2.05370995049876    5.51379994585223
C        -1.96024726154632   -2.39674166513428    3.20193253187646
N        -1.66117346328287   -1.66085328288033    2.02351281738300
C        -2.45119049457674   -0.62239409623720    1.71552537945822
C        -2.08747914637989    0.30214177342709    0.75611333468105
C        -0.87575042972752    0.14172230303352    0.09056623595926
C        -0.09570272041433   -0.96577452975203    0.39265145747616
C        -0.50290885493059   -1.84390958985505    1.37285864376967
H         0.10944690229780   -2.67445812010204    1.68586022026205
H         0.84753677940805   -1.12780598705364   -0.10235334365684
H        -0.55110454303241    0.86642074513757   -0.63781134363305
C        -3.04270443515720    1.43456672831373    0.46419425491631
O        -4.23122138399965    1.22672072942601    0.35029653939529
N        -2.44439373947679    2.62526894001496    0.30821476142332
H        -1.49855307239683    2.77006101479653    0.63663336560954
H        -3.03611412796937    3.43395231757607    0.19725263734854
H        -3.38434075315196   -0.51810065533365    2.24902184015638
H        -3.02424771946620   -2.62300877554253    3.27856588551583
H        -1.36383248008508   -3.30345339154268    3.27658466084613

