49
CSD_code = ROFKOP | q = 1 | S = 0 | Stoichiometry = C19H22MnN3O3P(1+) | MND = 6
Mn        9.15226641317686    4.20815704526422    6.07752453659436
P         9.31292030178217    4.03076175934651    8.34717653038978
O         7.00924771135265    2.27399626025895    5.58058077947647
O         7.07347849092349    6.26978020086602    5.93553381577246
O        11.02944568980386    2.00073815594350    5.60961764523157
N         9.51993731162736    4.77474364509173    4.15621407325647
N        10.60524582686278    5.54755341156145    6.35511046802817
N        10.53938153162536    5.17906071596940    8.62090335436811
H        10.85965091719234    5.41088825239323    9.55328702369729
C         7.84812329166463    3.03056828190084    5.77871715268846
C         7.89359590470225    5.49034336224111    6.08111545201924
C        10.32882695947888    2.87048261202550    5.83570568534092
C         8.90885493880175    4.31624329264888    3.06236245400241
H         8.14115026721252    3.56606852217373    3.20907514123831
C         9.21576908775101    4.75585560060096    1.78646440126827
H         8.68828109244352    4.34949202913447    0.93926352455895
C        10.20320987497335    5.71660530049956    1.62691325716869
H        10.46928927616770    6.08185898769882    0.64782259467915
C        10.84156214098829    6.19863606562400    2.75468210814194
H        11.61281070039167    6.94509165829602    2.66361021913167
C        10.48129675022182    5.71254780710863    4.00969107519834
C        11.09707071543761    6.16100220058732    5.26214951646742
C        12.09244416637423    7.12385765360847    5.35909639538867
H        12.47919468329160    7.61163859460360    4.48161912219382
C        12.58607696065789    7.45517282982556    6.61497439153979
H        13.35720921959208    8.20207370412478    6.71432818651730
C        12.08388082212773    6.82220220700722    7.73168854469471
H        12.44712803880606    7.05488009202137    8.71957227512248
C        11.08197344376774    5.85884627132314    7.56511913751391
C        10.06990636834535    2.50273039040058    9.09328602684225
H        10.97049178454970    2.34653069415975    8.47976728524172
C        10.49805705640325    2.65233080788483   10.55013827716374
H        11.17451459654133    3.49248438662891   10.69408564996603
H        11.02524058511640    1.75042427744148   10.85431606146044
H         9.64339161433073    2.76761576382717   11.21171485036194
C         9.13410167988832    1.31259270118606    8.90385580210819
H         8.30444771481327    1.35832171405984    9.60532719877937
H         9.67002985333698    0.38302787776102    9.08119066771141
H         8.73671567388720    1.29174332379966    7.88723491046564
C         7.95522280945645    4.55448405798426    9.50134621894083
H         8.18545068667771    4.15923588084703   10.49664343059742
C         7.85698939467426    6.07596008177328    9.56638086592640
H         8.69668338179318    6.51421547281932   10.10181934511358
H         6.94484473677393    6.35967458729138   10.08633459268804
H         7.81923607198914    6.50594073800613    8.56596288333828
C         6.64962217248688    3.93858334761245    9.00157419394642
H         6.36938785137467    4.37226596502797    8.04198797247823
H         5.84777918231722    4.13004831072064    9.71092232614910
H         6.74216425604581    2.86244310101956    8.87029257903200

