63
CSD_code = ROFLON | q = 0 | S = 0 | Stoichiometry = C20H31CoN6O5 | MND = 6
Co        8.54577317456778   24.52662867880111    0.10460947580559
N         8.99404413558574   26.31777528980953    0.46981973352168
N        10.30512597631608   24.22092690921997    0.69121277346911
N         8.10885408074271   22.73323913605109   -0.26629124541905
N         6.77831388505378   24.81659275368704   -0.46569684647814
O         8.17239830527374   27.30086558943476    0.31594926391939
O        10.91444219576220   23.01109484063612    0.76411962088333
O         8.92246840391572   21.74640688568439   -0.09867829816681
O         6.14939643426107   26.02148612998310   -0.49459738165015
C        10.19738513378092   26.49462776237899    0.93538361486945
C        10.95378134976080   25.27669814483894    1.05894187628618
C         6.88541128429660   22.54167521761398   -0.66981889971042
C         6.11438628614419   23.75143244693627   -0.77046370013267
C        10.74655300774773   27.83583170147925    1.30333025201539
C        12.35837229828949   25.25948614563176    1.56170439033617
C         6.32636735981980   21.19043249809895   -0.98301616746559
C         4.68043089960979   23.75165495479400   -1.17999834679942
C         9.24122887732640   24.75874454724047   -1.75490203958166
C         8.54706577345883   25.83610039418451   -2.59424754177596
C         9.28626888733962   26.01111107467094   -3.81801081013855
N         9.89428829423139   26.13079919779202   -4.77984458193443
N         7.76351038905261   24.40879649215015    2.13709097886126
C         7.35926074472435   23.15282917761091    2.78623048448426
C         8.57652336883254   22.38482427223168    3.31087486312909
C         8.20571454470832   20.96919811768768    3.65467852497537
C         7.94010170738185   20.58843433590874    4.96271251894505
C         7.56459985636656   19.28797617635688    5.25427346251617
C         7.44725849598905   18.35593209840564    4.23807421690195
C         7.71745148746840   18.72664966875226    2.93092158923344
C         8.09598282183632   20.02469760705941    2.64062719073425
C         6.36393779385617   23.45405448597011    3.91479759572750
O         5.30053863164711   24.19755646952565    3.35419365378419
H        10.20322753986957   22.34777083189938    0.37953464383081
H         6.88245510924677   26.69491870040751   -0.19671605140656
H        11.59688570643601   28.08790575165201    0.67131108972815
H        11.07475823449823   27.85360093088527    2.34161745962110
H         9.96656053604501   28.58063799850652    1.15990889839949
H        12.40703581427595   25.66457236975036    2.57125441066226
H        12.98947176199400   25.87348661429793    0.92160746350247
H        12.73297661527728   24.23944906282103    1.56337160993596
H         5.87774777182792   21.17801868423944   -1.97442021527078
H         5.56405994520566   20.90759482587112   -0.25688425517680
H         7.13464873144046   20.46310374255700   -0.94617885440927
H         4.10013257026619   23.11485033543438   -0.51472100545506
H         4.57958702403777   23.36474739498026   -2.19304955686015
H         4.28930866024329   24.76491644666396   -1.14221033069629
H        10.30335774014869   25.01515026561754   -1.69057537111069
H         9.17019881448329   23.80441881141095   -2.28445614186180
H         7.52298132869078   25.55602701521532   -2.85285928021760
H         8.52416635412676   26.80039119810574   -2.07901386931745
H         8.38675234860512   24.90728825328667    2.77386171548568
H         6.91246054312314   24.97437867649621    2.07628253449396
H         6.83609987329510   22.54678820182179    2.03999449736900
H         9.33824310053953   22.37064727913467    2.53204610757012
H         8.98173233103150   22.89801967692351    4.18683551173104
H         8.03499433778538   21.31101368558253    5.76191885323724
H         7.36201714267373   19.00335506206336    6.27655980259594
H         7.15171399909364   17.34232251008039    4.46520535471217
H         7.63690438774183   17.99946125544137    2.13638871193117
H         8.32567111680667   20.31084043764493    1.62474929951199
H         6.00606249294898   22.51089050691468    4.34395541787797
H         6.85898002336371   24.03587448156860    4.70817255923706
H         4.61497215974930   24.32959979210619    4.01502876917132

