37
CSD_code = ROFQEK | q = 0 | S = 0 | Stoichiometry = C16H13CdI2N5 | MND = 5
Cd        2.76441481749826    0.25231471212794    3.56255273384760
I         2.92377282721657    1.18483188583914    1.05773309250314
I         1.36395421517010   -1.61324616349023    4.93842295379741
N         3.11517159956862    1.51469578614287    6.51428940393083
H         3.24069243237096    1.34223712486100    7.52217851530349
N         3.91590619207916    0.87227310739754    5.68241166423333
C         4.77663065377981   -0.00725884449562    6.07993941930124
N         5.06383105621419   -0.65096873522553    3.79440273959864
C         5.61572530736958   -0.57032470874274    5.00978486985057
C         6.94000717056288   -0.94718225079384    5.23691270452787
H         7.37599940850448   -0.82993372949697    6.21712063802844
C         7.68755104835520   -1.43991194303954    4.18206548054147
H         8.71527003881214   -1.73464308229580    4.33343028420792
C         7.09845666231407   -1.54008718614044    2.93126755260419
H         7.64430870948389   -1.92217939302172    2.08396730211016
C         5.78421741672661   -1.12215506777698    2.78867436581469
H         5.28879106885095   -1.16615744167867    1.82541168118704
N         4.44231750820028    0.29688714036023    8.43419645684682
C         4.89188953690824   -0.50112612655355    7.45717526371940
C         5.34681396210128   -1.79575426820594    7.72860412457729
H         5.63776689786532   -2.45143999203669    6.92368338460711
C         5.37488108692825   -2.23334359352451    9.03949437688258
H         5.71978874957624   -3.22968249355545    9.27247357714044
C         4.94394213344678   -1.38219193999252   10.04703803253909
H         4.95589973662900   -1.68579704762299   11.08125473224119
C         4.47061078540413   -0.13290054195746    9.68246919965217
H         4.09199510733214    0.56367145602853   10.41903799640925
N         1.84673446840578    2.25039494200555    4.71889933069426
C         2.06746489986958    2.26284693303524    6.03554241071966
C         1.27519193657003    2.99825054253086    6.92492830737283
H         1.48108465152077    2.96611087074538    7.98322708367320
C         0.23734790446803    3.74552646577621    6.41037028002616
H        -0.39746354619496    4.32118138773750    7.06683698219604
C         0.02001612487730    3.74768872385664    5.03632444391579
H        -0.77911063589043    4.32382387231706    4.60004322168237
C         0.84853145865519    2.98223411250736    4.23682972655041
H         0.71689660842629    2.95041548638415    3.16140566718552

