77
CSD_code = ROFSAG | q = 0 | S = 0 | Stoichiometry = C22H48FeO2P2Si2 | MND = 6
Fe       -1.81129137016282    0.51785140948503    3.83002907018389
P        -3.14393294102763    0.24966083415238    2.14079360057093
C        -3.06273439290904   -0.24310973454379    4.78692376808405
O        -3.86299205807921   -0.84664545336298    5.37300626912479
C        -4.59591305746596    1.38602992501339    1.96252936064200
C        -3.99144286376637   -1.38795237641329    1.99097312428045
C        -2.99361501892273   -2.53649362424746    1.95587288236257
Si       -0.54754419257538    3.64389592889271    2.08100570461209
C        -2.37006054613092    0.43171681915271    0.46400709753848
C         0.35771123791035    5.01545537346803    3.05363047165200
C        -5.44298852429768    1.44799583532124    3.22383552522860
C        -3.26887810273368    0.39696521188780   -0.76624778203219
C         0.70604684289268    2.68247401877401    1.00521041041827
C        -1.42755632898377    2.57646667590314    3.32886455407448
C        -1.86739180625129    4.45699595540180    0.96021891622217
H        -5.20260840938345    1.06282627639175    1.11156412339718
H        -4.17845207468361    2.37576585388953    1.74859573575876
H        -4.63123002588738   -1.39223301406549    1.10304694877296
H        -4.63195017888537   -1.48857511664071    2.87160992992876
H        -3.50400708976661   -3.49496068072303    2.03137940926577
H        -2.41530778048104   -2.52738433919693    1.03463046963809
H        -2.30166322523630   -2.44149660405695    2.79253649742312
H        -1.62138275204846   -0.36372087651836    0.39925130866578
H        -1.82361866337152    1.37840536210633    0.50269465626966
H        -0.34537854136236    5.60852229678563    3.62988873027187
H         1.08214723848803    4.59895813779339    3.74646540969827
H         0.88816476839107    5.68755083656252    2.38533470598330
H        -6.24138902071750    2.18040228970950    3.11253874860750
H        -5.89568098888633    0.48266053183028    3.43985223783929
H        -4.82243235929118    1.73442692575776    4.06909892637090
H        -2.65179994786033    0.42547059308552   -1.66340548558316
H        -3.86507419455318   -0.51210080912180   -0.80192715231059
H        -3.93698347830032    1.25439232771869   -0.79372159359169
H         1.72988108344052    2.93136072686345    1.27037257354815
H         0.59299012658380    1.60954727762509    1.12521305883918
H         0.57981269358233    2.90638418836374   -0.05088691824339
H        -2.64853801144865    4.91928060178825    1.55573203310301
H        -1.42591316681106    5.23026931859230    0.33767079476945
H        -2.34161896880460    3.73724691131154    0.29933237470511
P        -0.47851064098426    0.24981424837255    5.51926791087759
C         0.97347043765514    1.38615139592775    5.69756541722747
C         1.82041123876164    1.44803012831228    4.43617681802245
H         2.61868035886114    2.18062109961642    4.54723561578332
H         2.27319828399693    0.48270237255478    4.22032896008901
H         1.19970842371519    1.73416811345862    3.59088037798486
H         1.58018100533539    1.06294937121986    6.54852462248312
H         0.55599618924063    2.37589353299396    5.91148749610903
C         0.36881238099845   -1.38788502119495    5.66918050871111
C        -0.62898649182904   -2.53646635129957    5.70430638579892
H        -0.11858517988422   -3.49494397737211    5.62884949986783
H        -1.20733843108174   -2.52732614889557    6.62553213425046
H        -1.32088679659796   -2.44152137506847    4.86760004542237
H         1.00865201579317   -1.39221018818555    6.55706319450829
H         1.00927361751719   -1.48851591831097    4.78850964587176
C        -1.25243062218732    0.43183768889622    7.19606123391330
C        -0.35357004498710    0.39680840488911    8.42628804878395
H        -0.97058221996157    0.42529046122794    9.32348846960157
H         0.24248069764371   -0.51235694684157    8.46181300466795
H         0.31466838681008    1.25412136181662    8.45384862498566
H        -2.00131417405232   -0.36339845255543    7.26086454393275
H        -1.79862186360797    1.37867021294449    7.15744739998606
C        -0.55921242578993   -0.24260458394750    2.87348664404412
O         0.24066867424426   -0.84635575040883    2.28719461503017
C        -2.19503154695763    2.57650197958562    4.33139769438172
Si       -3.07511729954010    3.64397340757976    5.57914587609873
C        -3.98023060171330    5.01557974237417    4.60645414052176
H        -3.27698498859235    5.60870908227396    4.03046483703423
H        -4.70443607610320    4.59911755258973    3.91335968482983
H        -4.51089297820332    5.68760730763649    5.27465092958901
C        -4.32883849615176    2.68260341491178    6.65476498458375
H        -5.35247766922580    2.93099496655509    6.38903795831412
H        -4.21533879992040    1.60982572495943    6.53538643347949
H        -4.20327064845666    2.90706750022200    7.71065773789514
C        -1.75525314307807    4.45677232605874    6.70013231335634
H        -0.97397735245861    4.91884227848240    6.10464092114702
H        -2.19658982445672    5.23017830324318    7.32260649432397
H        -1.28120730494345    3.73694692064388    7.36107828040442

