79
CSD_code = ROFSIO | q = 0 | S = 0 | Stoichiometry = C24H48FeO2P2Si2 | MND = 6
Fe        2.39568205667466    7.99631240012335    3.37616038285675
P         1.78898292453347    9.67396456607317    4.61264133236258
P         2.82174606124108    6.30841628864623    2.08070839315956
Si        3.65424668232659   11.38501386678500   -1.47596616931779
Si        6.02155449003298    8.69685233672848    4.25834414059164
O         2.23310272691748    6.23656745721976    5.69306653868710
O        -0.22454913420428    8.24271821275555    2.14069605919710
C         4.38918280702689    8.64730514574207    3.36545185955296
C         3.82899168721622    9.12250009015110    2.31828808989561
C         3.83355457392488    9.82794593349645    1.15548706270793
C         3.78441122727905   10.43919424705762    0.10056220504675
C         2.85829700606765   13.07808066800092   -1.10076706113211
C         2.55838592766315   10.40987894356049   -2.69717463141213
C         5.39158240780580   11.62861540358185   -2.22488010369335
C         6.49420506916449   10.53558448782035    4.48630630991424
C         7.36552397452344    7.84802932057687    3.19918484095060
C         5.89290980552276    7.83330067171337    5.95868728944260
C         0.03158443881973    9.72353597232879    5.18038374155802
C        -0.40857262472375    8.42039113613279    5.83121848167573
C         2.72651841353996    9.84295185266405    6.20316500643800
C         2.48756552758339   11.07080295902172    7.07319370234735
C         1.95302558901555   11.38144732781921    3.91830550069320
C         1.22735925204328   11.55561144198218    2.59103534686406
C         2.96522898009980    6.59848279687172    0.25688484991950
C         1.75357111779267    7.28140471899568   -0.35752239092141
C         1.73721529282432    3.72007599635931    1.34368948424109
C         1.55391135650635    4.96500101677414    2.20269958438458
C         4.42667218562198    5.40711444266239    2.27292214008263
C         4.64955256707794    4.86010859763263    3.67365369891213
C         2.35560142242397    6.93869590018328    4.78159670332983
C         0.85373088075541    8.17891412639466    2.55808439569510
H         1.85706647547838   12.95879762387530   -0.69756033912603
H         3.44214477819481   13.63226761110490   -0.37185345895999
H         2.78277119655421   13.68949568868955   -1.99560027698794
H         1.57777156018643   10.21348811585870   -2.27404031108014
H         2.41324370955151   10.95649336127726   -3.62486880644508
H         3.00593271688827    9.45237977016832   -2.94721207385425
H         5.86695820710282   10.67427558319712   -2.43157249708068
H         5.34916484496018   12.18355363909831   -3.15798936813271
H         6.03864850846022   12.17561338393162   -1.54575487922272
H         5.77724072887677   11.06522270970783    5.10732838128041
H         7.46956443876201   10.63525404885350    4.95379884969426
H         6.53293615549472   11.04313656314995    3.52734969870505
H         7.25322973141572    6.76815119785521    3.19580697455775
H         7.32677408137314    8.19099322037732    2.16961025616579
H         8.35660987815693    8.07193312554539    3.58330129066240
H         4.90049013642029    7.42154440034057    6.11629354734570
H         6.60185213644390    7.01526082610445    6.04422785054999
H         6.09144546172232    8.52118559917248    6.77551696527274
H        -0.58053199727407    9.91057043912561    4.29343035705176
H        -0.09670225377745   10.56800173155303    5.86534329112737
H        -1.45962216651473    8.46941217596272    6.11088450901565
H        -0.27273757505601    7.59544543087581    5.13322913988917
H         0.17454175420068    8.21009081206568    6.72528213074456
H         3.78094903296021    9.78578681012272    5.91709687573040
H         2.50185730102421    8.93226760783719    6.76813355811903
H         3.05250493285737   10.97075588435989    7.99880178724910
H         2.82054836169871   11.97818902497535    6.57575878551226
H         1.43788847033530   11.18059646014087    7.33556082707170
H         3.02634300165196   11.55080880120794    3.77817150331296
H         1.57406998187491   12.09774039458202    4.65360893315766
H         1.43908494940027   12.53823221700146    2.17368797253198
H         1.55947526135940   10.80594818177722    1.87649132753366
H         0.15080006350795   11.46228833531496    2.71595023815433
H         3.15847497934933    5.63776108378724   -0.23083512435606
H         3.84804506805662    7.23250965739008    0.12102185728116
H         1.88507689925003    7.38354616012931   -1.43310093821411
H         0.84410075133803    6.71236202316665   -0.17491467693567
H         1.63272574752976    8.27658575450821    0.06331673507962
H         0.92086245640268    3.02509108248027    1.53425568286883
H         1.72621190327735    3.96471366178656    0.28435300406597
H         2.66959941521253    3.21142712325780    1.57643686990572
H         0.59656947547164    5.44554023704219    1.97494222663201
H         1.52062091387636    4.69390157178904    3.26326414900850
H         5.20277260963722    6.14147036489006    2.03342972963337
H         4.47323155637219    4.60658163678308    1.52804919575978
H         5.61364981713471    4.35746699992308    3.73719632153514
H         4.63789250286917    5.67326321536507    4.39464013035663
H         3.87447734675798    4.14598032668656    3.94472501380362

