30
CSD_code = ROFSOU | q = 0 | S = 0 | Stoichiometry = C6H18AuClN3P | MND = 2
Au       11.43905356662660    8.58017567293751    3.25653824134849
Cl       12.84414189731185    8.58032923275330    5.02847922280465
P         9.97986803734823    8.58001044950831    1.56168121990119
N        10.00436682096633    7.18340992041013    0.63141706986467
N         8.35790263808774    8.58002152646131    2.04796958301172
C        11.25135772963115    6.47373708834631    0.44883976155610
C         8.98699751789962    6.86036567011318   -0.34751701598339
C         7.97521431445747    7.38446400308520    2.78833513007820
H        11.08618628560916    5.39783548723549    0.55452861152194
H        11.68706989667284    6.65999972227736   -0.53894042046392
H        11.96180723037424    6.79538623441258    1.21224670577464
H         8.76340566987754    5.79050406071450   -0.30642474881838
H         8.07982578580132    7.41763743658768   -0.12526436813671
H         9.31498350387316    7.10060974285469   -1.36461784582644
H         6.88583923109074    7.33653824667559    2.83537412948179
H         8.34753565243042    6.49757508869237    2.28109407962973
H         8.36737253203155    7.39110234541097    3.81177029325108
N        10.00433955206758    9.97657195894854    0.63137072636166
C        11.25136748372433   10.68612907200594    0.44863723952033
H        11.08636152532185   11.76200829525159    0.55396768328831
H        11.68702326573606   10.49956157072137   -0.53903098856468
H        11.96182564353615   10.36468861853473    1.21206352702318
C         8.98686317756886   10.29968740167531   -0.34742086526293
H         8.76319600728204   11.36952343224775   -0.30613678852732
H         8.07974937055589    9.74232227725983   -0.12517505285335
H         9.31479214204415   10.05963457078542   -1.36458100251878
C         7.97537539771126    9.77550995625504    2.78852750643725
H         6.88600715740095    9.82358893071807    2.83557387246089
H         8.34783309997056   10.66242823343352    2.28143163438331
H         8.36753786699017    9.76864375367209    3.81196285925163

