77
CSD_code = ROFSEK | q = 0 | S = 0 | Stoichiometry = C22H48FeO2P2Si2 | MND = 5
Fe       -2.51890028371443   -0.03966672747057    3.10690898692403
P        -0.49104221953719    0.14218660485206    3.82217803085017
Si       -1.64096602739692    3.99169329467240    1.70152596162659
C        -0.10764032663033    1.32436048730362    5.19277785610031
C         0.32157203855429   -1.37652628827495    4.50278900346374
O        -1.77634019376354   -1.68450789897744    0.80425480713043
C        -0.73023231241281    0.91016718773503    6.51937830524423
C        -2.72286547433963    5.42070086470131    1.04946788350814
C        -0.00563545581656    4.73218509437935    2.36401156093369
C        -1.24658843138150    2.81388273739592    0.25252763884927
C        -2.05486834168948   -1.04539206531561    1.73018556872000
C         0.72448183658534    0.70281234589953    2.53900894424155
C         0.38992017973515   -2.51376807216263    3.49372660414831
C         2.21303430936685    0.68347375345927    2.86741097196922
C        -2.51905615423363    1.74901360449591    3.10683807051931
C        -2.51854907077612    3.05165409302107    3.10714506898598
H        -0.51427749022604    2.28902213195578    4.87228851520530
H         0.97743401357648    1.41512997382694    5.29692434604954
H        -0.28429932202987   -1.68978798029392    5.35924791283307
H         1.31937845742144   -1.10929843527108    4.86654287706628
H        -0.69593087646237    1.73484883630310    7.22897048225030
H        -1.77017525050677    0.62685611409853    6.37093364179156
H        -0.20154342364165    0.06591350383151    6.95646148608687
H        -3.70235954698545    5.07594580776924    0.73308223075958
H        -2.86823846963508    6.18348550223895    1.80701948978360
H        -2.25033088675658    5.89567374159288    0.19505954444586
H         0.59706396036974    3.99293993902721    2.88351295352369
H         0.59405744366690    5.13165403978908    1.55104841644341
H        -0.19347325235605    5.54365581979030    3.05871699929279
H        -1.91583981290324    2.97596738571693   -0.58622444799081
H        -0.23110686041997    2.94168952048600   -0.10997183337463
H        -1.35804981079265    1.77960865848749    0.56595956910836
H         0.40468940620733    1.71786833162159    2.28297262079831
H         0.52964209578003    0.07842043855660    1.66000684077473
H         0.84419830663060   -3.39543242020798    3.94358021226851
H        -0.61355191029004   -2.77567348344719    3.16199388682407
H         0.97521920476392   -2.23357114322502    2.62006556702895
H         2.77183272602768    1.06138515836514    2.01232384862561
H         2.44619755372648    1.31595363744887    3.72053574175204
H         2.56352422982540   -0.32431237020013    3.07555143032915
P        -4.54733994230581    0.14230843886161    2.39287784659476
C        -4.93124053139681    1.32510960075167    1.02292733242476
C        -4.30809757750603    0.91208522884330   -0.30379762369669
H        -4.34236769099092    1.73721029330183   -1.01287312583792
H        -3.26811448854399    0.62898254889417   -0.15511734062089
H        -4.83635555528719    0.06795149046021   -0.74164747887350
H        -4.52528733487297    2.28983481485445    1.34407416384293
H        -6.01633966358787    1.41531566300097    0.91859113784193
C        -5.35984181437016   -1.37610987573820    1.71139100968849
C        -5.42755954585215   -2.51394975827127    2.71981496861480
H        -5.88155720026411   -3.39557242733372    2.26958551001384
H        -4.42390289912366   -2.77558822467229    3.05122586891115
H        -6.01281482188465   -2.23443364375667    3.59372444320897
H        -4.75417925622659   -1.68872242397125    0.85452788301172
H        -6.35782358172280   -1.10893638318308    1.34808120032040
C        -5.76263660601138    0.70212273334839    3.67662944751406
C        -7.25124112229919    0.68293540099849    3.34845618916887
H        -7.80989971891599    1.06050977029432    4.20377750464327
H        -7.48452150952102    1.31576096610638    2.49562255146227
H        -7.60174670421044   -0.32477276084057    3.13997654556258
H        -5.44276608501897    1.71703258472838    3.93314907578680
H        -5.56758072657676    0.07722000722504    4.55520559620227
C        -2.98303097060208   -1.04544487037116    4.48349565447766
O        -3.26016262366665   -1.68485796908368    5.40966924389037
Si       -3.39632099117163    3.99203205979415    4.51243123699836
C        -2.31489210170796    5.42189864933620    5.16333676493730
H        -1.33500272177855    5.07790543513477    5.47925357553014
H        -2.17045320869581    6.18452826932767    4.40547714201887
H        -2.78718243962440    5.89686623949206    6.01784148295907
C        -5.03215549548159    4.73151830227431    3.85014007193803
H        -5.63531843201071    3.99163474857974    3.33214775709227
H        -5.63117379431285    5.13210774182224    4.66301131189230
H        -4.84483073050126    5.54202680615561    3.15420286461734
C        -3.78967485074157    2.81464282936621    5.96199431303689
H        -3.11986234179354    2.97710921083662    6.80046215546874
H        -4.80513811315403    2.94254407849072    6.32503435186222
H        -3.67827136579401    1.78018270095817    5.64866177261676

