67
CSD_code = ROFVIR | q = 1 | S = 0 | Stoichiometry = C26H38N2V(1+) | MND = 12
V        10.43057614704433   -0.29865161823837    2.03927397452715
N         8.26069051366217   -0.69881321725964    4.13274196764131
N         7.92228928828422    0.25091250615280    0.39386005845349
C        12.18521954546644   -1.62263215027226    1.89100382457119
C        11.61264248850030   -1.50812588991784    0.59915150960266
C        10.31803308392983   -2.04019172235533    0.62613137067861
C        10.05353501990519   -2.46487467722663    1.94980474909025
C        11.20974470839771   -2.20807025891847    2.72398268284316
C        12.22372899841258    0.75484533587476    2.74166941608414
C        11.93521862847520    1.24133263235044    1.44051444952245
C        10.67922767434618    1.84988002296265    1.44828224697925
C        10.15444633656205    1.73859329290095    2.75974089794065
C        11.12594316121002    1.08348182681900    3.55902565309148
C        13.60234380025324   -1.25497725683952    2.28777143191783
C        13.49797547416433    0.05356445030059    3.16431368634704
C        14.22813889677045   -2.44189593925816    3.03815004886435
C        14.46114328049109   -1.06280850163118    1.02813102146412
C        13.43179964079127   -0.25987932686563    4.66547787739045
C        14.67745585450326    1.01807228482488    2.96696969944702
C         8.89520235046656    0.03270910541548    0.99163219109784
C         9.08668662844136   -0.56473476318299    3.32469590346641
C         6.69185075251776    0.48780046832489   -0.26181488390257
C         6.21596829478332   -0.84470420643510   -0.84601556517889
C         5.70373357331630    1.01508143654200    0.78196690956764
C         6.92900370053629    1.51974591719195   -1.36613037724026
C         7.18860822404372   -0.82531310646066    5.04739874348539
C         6.18487741954747   -1.81851912451359    4.45653661036904
C         6.55960079038389    0.56064279242693    5.21286775410028
C         7.75014966203808   -1.33682743049655    6.37543924977228
H        12.11462309879050   -1.18500637654137   -0.29951327629060
H         9.68505526642008   -2.21482163643193   -0.23261223853195
H         9.19999384303890   -3.05332842717295    2.26011957761635
H        11.34127215889237   -2.53908163250879    3.74347818940235
H        12.60947848427762    1.25466044173401    0.59909105671890
H        10.23768767576140    2.40518105719405    0.63256377732841
H         9.27154672122614    2.24563239152833    3.12776093108116
H        11.05864214347485    0.97313634998792    4.63076784745760
H        14.26880425844189   -3.30235255114472    2.37237072095013
H        15.24534973556424   -2.20377357451147    3.33853720207741
H        13.66538426504200   -2.73193829122733    3.91897017776148
H        14.40077767087703   -1.95829860984891    0.41147237435502
H        14.15667120562748   -0.21421922691326    0.42321814641153
H        15.50278100630753   -0.92306253165417    1.30241740235154
H        13.31456439528364    0.66711198680806    5.22369360599783
H        12.60043335309688   -0.91654033254780    4.91335218599251
H        14.35573392479454   -0.72261383205674    4.99836910725978
H        14.54506294985507    1.88390359375746    3.61347832062215
H        15.61185307540670    0.53473009251724    3.24015242453064
H        14.75604788747716    1.37839724058644    1.94608712865053
H         6.92213017491148   -1.21118486826742   -1.58704694106253
H         6.11453845453679   -1.59143433165276   -0.06142902560484
H         5.25123291320093   -0.70913463020845   -1.32584851822583
H         6.07991355852888    1.92992132777341    1.23432036143572
H         4.74969065407418    1.22779704209214    0.30873304530923
H         5.54809474494319    0.27544979356423    1.56400728991488
H         7.27500745115267    2.45980535841003   -0.94289228061870
H         7.67305374562630    1.15929576431045   -2.07232396258968
H         6.00232425508180    1.70167085055226   -1.90232740271747
H         5.33596228548613   -1.92249444968558    5.12575818173117
H         5.82721509909452   -1.47050805889692    3.49019506085906
H         6.64496183962076   -2.79500716791627    4.32583494008106
H         5.72461919856006    0.50259676765537    5.90481035506549
H         7.28821642756132    1.26504761217977    5.60704082244232
H         6.19700663453702    0.93237587386227    4.25719634181401
H         6.94582752644310   -1.44409723600634    7.09709519685459
H         8.22657110905245   -2.30490244398048    6.24065541851916
H         8.48273687066947   -0.63925621764610    6.77397335302625

