38
CSD_code = ROFVEN | q = 0 | S = 0 | Stoichiometry = C16H20ClV | MND = 11
V         0.02959026565424   18.33141759980330    7.41848632649113
Cl       -0.74851212830783   20.26931691221769    7.24093851765621
C         1.85743902508899   17.08737513512868    7.31093950375768
C         1.97338609050644   17.94262466172112    8.42984737419409
C         2.02821101434335   19.27340947976284    7.97317040840991
C         1.91301868861601   19.25448584505340    6.57658339869153
C         1.77798115605245   17.91345390250795    6.16371634776035
C        -0.44673061588662   16.20981061957360    7.83352053956800
C        -1.02765694626599   17.02975949768969    8.83100981207986
C        -2.02068953540724   17.82502581408712    8.22396234920426
C        -2.03026312766062   17.54183621754363    6.85145551686334
C        -1.04830076846479   16.56327797185786    6.60472914895071
C         1.89588451686715   15.57142816954103    7.33938659292786
C         3.16962766625453   15.12047152242092    8.07198847999023
C         2.01973841741100   15.03488395490080    5.90627804565761
C         0.56805922803214   15.10237863924826    8.04370212082240
C         0.75709710082049   14.85893685097523    9.54773463904552
C         0.00078524256600   13.79362915090468    7.47106747279588
H         2.13959871648083   17.64559096472647    9.45520473738758
H         2.18502017818560   20.15032961574722    8.58653033971244
H         1.97112118319316   20.11426782194621    5.92304507699012
H         1.77613847190826   17.59142014876877    5.13232528464144
H        -0.86895372139059   16.96330167719069    9.89773647439019
H        -2.69371636926659   18.49760133935112    8.73813028774000
H        -2.70795405122052   17.96137888153337    6.12038316068554
H        -0.90129352545093   16.07848689237523    5.65058850361983
H         4.03991731255154   15.46976113360199    7.51954358757052
H         3.23463362386179   15.52193635322721    9.07734769999761
H         3.21518655415826   14.03484308862545    8.12414432524365
H         2.90643928032673   15.45986238423594    5.43978787929712
H         2.13503977643239   13.95474947793658    5.91238906397968
H         1.15934695379861   15.28922812531219    5.29546674799913
H        -0.20642512794462   14.62603451582374    9.99697966189910
H         1.41419519090722   14.01064277138139    9.71668463380666
H         1.16896137861452   15.72457076375505   10.05671255510970
H        -0.90417697369706   13.53024091144796    8.01539113784112
H        -0.25872643542587   13.87768580688920    6.42143177451317
H         0.71628229375786   12.98314538118602    7.59176047270812

