72
CSD_code = ROFXUI | q = 0 | S = 0 | Stoichiometry = C33H32AuCl2N3O | MND = 4
Au        8.12634104663974    9.24727101964606   16.70122085913181
Cl        9.40718845903643    7.37852494017048   16.86167959639761
Cl        6.54946705007531    8.53284630201146   18.22453560747424
O         7.23572854243404    8.24657000371103   14.60031147428173
N         8.31754036060046    8.28868193324971   11.31412092958496
N         7.22681908944306   11.97132904772599   17.59698881715849
N         6.11577956858180   11.33569695429178   15.87421279838977
C         9.48103363168922    9.71658777970175   15.33792343823112
C        10.64955438268173   10.38304252221562   15.65940956342217
H        10.83183765990680   10.68809280653827   16.67913186759026
C        11.60373221531456   10.64241817219246   14.68747197315269
H        12.51115631943888   11.16300801021364   14.95676051412449
C        11.39857911329552   10.22303773892647   13.38277173058145
H        12.14150321929144   10.42609766674900   12.62582649825499
C        10.25951011060888    9.51628376544456   13.05740596078660
H        10.09973369287766    9.16561941530860   12.05074049592901
C         9.28869762838097    9.25073617695611   14.02820304837298
C         8.10142058527813    8.43201601520643   13.75189888893394
C         7.94727074829057    7.71447243876942   12.45426822967758
C         7.36375306883271    6.44801608732499   12.49791144444734
H         7.07577943686865    6.03513306026855   13.45158072981340
C         7.18027755201823    5.75760320756793   11.31304697311607
H         6.73841920366229    4.77183065600993   11.31498041983573
C         7.56945290971418    6.35806905933060   10.12598846751109
H         7.44104993715039    5.86035021396135    9.17740057146365
C         8.12841431910910    7.62640518194533   10.18824210008714
H         8.44194078311891    8.14427132730614    9.29024878743360
C         7.15030825972544   11.01153818478252   16.66173260064274
C         6.24059683960508   12.89566816503229   17.40031369574028
H         6.12832994941909   13.74853675908426   18.03756194120022
C         5.53847413042504   12.49398312451027   16.31386776535775
H         4.69295116736275   12.92682610362912   15.81996970795352
C         8.25900914108202   12.08768426980346   18.57164659776070
C         9.46277837892285   12.67589425387347   18.17960966358703
C        10.49404936653413   12.74025730197907   19.10229797427203
H        11.43601761639193   13.18135701308706   18.80940232000019
C        10.33846343869256   12.25467591533310   20.39437032693827
C         9.10453598462034   11.74732157800832   20.77192982276934
H         8.96070069152104   11.40389716588057   21.78575808617645
C         8.04194893587543   11.66403807756296   19.88206786605713
C         9.61015371103695   13.28291082780940   16.81555985901278
H        10.64144685913941   13.57407913163991   16.63681471850253
H         8.98483351870309   14.17366722210508   16.73614070467902
H         9.30752941151652   12.58962111164688   16.03314445250563
C        11.48247203324797   12.28349013649135   21.35933066617535
H        11.12598539723246   12.33088325223408   22.38517911172311
H        12.13323283779551   13.13384516855170   21.16842821000802
H        12.07463849121549   11.37457060205464   21.25015522278444
C         6.70814715849297   11.15902055265040   20.31994282192283
H         6.69817541009528   10.98856572842374   21.39243683250783
H         6.47563014838984   10.21934417534555   19.81592803645083
H         5.92118275501996   11.86947201936366   20.06938545089435
C         5.71881507013139   10.65477037553106   14.68858181621758
C         6.35835310354573   10.98332733332385   13.49423725299678
C         5.99249456689533   10.30201723717422   12.34420090789804
H         6.49330150182113   10.53290817237784   11.41551294280949
C         5.01222479417604    9.31976877858116   12.36983552658439
C         4.37365133589858    9.04137042007152   13.56890942939182
H         3.60315305729463    8.28466424590265   13.59495615291160
C         4.70461454369980    9.70065896404261   14.74394426988501
C         7.41210002570678   12.04954772375499   13.45363242129958
H         7.78788367215371   12.16947977504960   12.44152066888761
H         8.25097199019435   11.78795549808138   14.09791226862145
H         7.00948484343140   13.00491807740440   13.79226935698954
C         4.62368652387598    8.59079619898548   11.12000710363862
H         4.47317792023720    7.53305429480206   11.32453848668364
H         5.38859652424868    8.69643860284581   10.35422576599021
H         3.68902373623152    8.99347967894609   10.72855988915348
C         3.99552222241219    9.41031658446374   16.02478009135662
H         3.19625774605090    8.69238441819497   15.86568288018975
H         3.57062311101177   10.32025932906227   16.44875365677496
H         4.68779144454789    8.99962494778550   16.76058287092577

