74
CSD_code = ROFXAO | q = 0 | S = 0 | Stoichiometry = C26H40N2NiO3P2 | MND = 4
Ni        1.70663822623406    0.89520743517770    7.21398384473907
P         2.89564330550735    2.38301635219935    8.25269810943009
P         0.72582128740718   -0.86409547957054    6.37251225747102
O         0.17946277827427    2.08998679756752    7.01020294557426
O         1.46791626582105    2.27720359036549    5.32421924001197
O        -0.29500471392744    3.49240302098534    5.46967716048174
N         3.15558380535188   -0.27309313938737    7.56527831611323
N         0.44334428500729    2.64808001170878    5.90448666252636
C         3.31460947052890   -1.39039105497764    6.78078730763934
C         2.18239161313166   -1.91397191680642    6.12651532412895
C         2.26762096541015   -3.04876021887319    5.33696129220940
H         1.38437117504047   -3.43400767154784    4.84684605080770
C         3.48139992876994   -3.69508465964207    5.15591760952905
C         4.61382103545791   -3.14415301287645    5.75219038815426
H         5.57534832911675   -3.60643314922383    5.57743907655120
C         4.54595141659190   -2.01745780340452    6.54258473337124
H         5.45028633155584   -1.59542226040174    6.95446920301815
C         3.59121067664565   -4.93000259835659    4.31254723559380
H         2.62277996518803   -5.21114367480398    3.90608165985077
H         3.97402917356180   -5.76222121045770    4.90289808022366
H         4.28031784065784   -4.76629170583969    3.48455811563042
C         3.95777693716131   -0.03087611663506    8.65049409348237
C         4.00300300704290    1.28095603848597    9.16633194370454
C         4.76854149090464    1.59910128952271   10.27496106259152
H         4.77470824607419    2.61133937368993   10.65477338323029
C         5.51696812459004    0.62593768452831   10.92032655350359
C         5.43945964456415   -0.68101613888126   10.44367657139994
H         5.97996277784379   -1.46023994380297   10.96294840900532
C         4.67836227052410   -1.01534113159988    9.34503332716801
H         4.61063038568984   -2.04835733916033    9.03888808193537
C         6.36257528420965    0.95214978118908   12.11485677615797
H         6.25549225315928    1.99780025904057   12.39315669469761
H         7.41369714732937    0.75759902675830   11.90147982873487
H         6.07749910611795    0.33495643157763   12.96631170393620
C         2.13317647450292    3.47624925983269    9.54418028704568
H         2.94209367847871    3.88314976723376   10.16225493458251
C         1.23410595242635    2.58397085005522   10.39613184015901
H         0.74489639478463    3.16185889685274   11.17810283316298
H         1.81281245087190    1.78654140289642   10.86183755069686
H         0.46483998707443    2.13573611329027    9.76500995279403
C         1.33899432503892    4.61820197293932    8.91987155180174
H         0.90659075253807    5.24121237874867    9.70160787463739
H         0.52396549479182    4.22673806618724    8.31532289650026
H         1.96753697312710    5.24789672632486    8.29317781705038
C         4.00205326145100    3.45514278965637    7.20995075472065
H         3.34462847313924    4.14134060195842    6.66273900302026
C         4.68644822195368    2.53263310204082    6.20348240001217
H         5.27237237694258    3.11085423403040    5.49180931469153
H         3.93701136961790    1.96168204801555    5.65161611763506
H         5.34956910484141    1.83634501214542    6.71552422994983
C         5.01629128649207    4.24865632443706    8.02409493504946
H         5.63681599636211    4.84155970230360    7.35368270812963
H         5.66613322508044    3.57579783347763    8.58006797182056
H         4.53055060200093    4.92781281037123    8.72159988718392
C        -0.20857541558334   -0.98707721874075    4.77177551591845
H        -0.41177410978486   -2.05170690701888    4.60027667355443
C         0.67766446708031   -0.45541483141804    3.64759552544335
H         0.14293807925700   -0.48149732154066    2.69975909478372
H         1.58237869077230   -1.05363606753685    3.55335733614348
H         0.97564417172000    0.57296646778600    3.84614454313709
C        -1.53430022621322   -0.23525791232716    4.84125761678517
H        -2.05701493356163   -0.31783436189486    3.88948626772726
H        -1.37630075206960    0.82136395745639    5.04248819008613
H        -2.17989243065686   -0.63891930551962    5.61893147966334
C        -0.32591178684873   -1.73753358865500    7.64084669695340
H        -1.27433727340937   -1.18851543410731    7.68183796039241
C         0.38707450719867   -1.57455333542776    8.98266390449230
H        -0.24187511811912   -1.91657031088172    9.80281186875754
H         0.63460457823053   -0.51892550228968    9.14906296496270
H         1.31284970943003   -2.14872978257496    8.99337725471366
C        -0.58995421646575   -3.20249981897494    7.32007829325492
H        -1.16115085699548   -3.65883009244396    8.12727604313678
H         0.34834166516291   -3.74473658714689    7.21775253655527
H        -1.16111498721958   -3.31294880603954    6.40086233032445

