56
CSD_code = ROGCEV | q = 1 | S = 0 | Stoichiometry = C12H39OsP4(1+) | MND = 7
Os        2.30532782355376    2.97475922098362    2.72243141357742
P         1.67868413660215    3.23619630302484    0.43448012337312
P         1.30325437430817    4.97215303224155    3.58362242956125
P         4.37321181679371    4.04461416947742    2.19918227551566
P         3.01443906690626    0.70583584404368    2.43477865914581
C         0.32393324177288    2.12847258835507   -0.10098267738088
C         0.97364056795091    4.84443189529284   -0.09278401606259
C         2.83803787491138    2.93196827551819   -0.95989128934302
C        -0.52854180853890    4.92447641783728    3.56988859926691
C         1.60013029021359    6.71786251440527    3.08683094943628
C         1.58156242882340    5.12734651479645    5.38723062251829
C         5.70891496155992    3.03401053963454    1.45297447187411
C         5.27123813803769    4.69408101694641    3.65525458346148
C         4.47888197314437    5.53997026995433    1.13444962636999
C         4.19922973160841    0.15161824576606    3.71811661265482
C         1.64515743432962   -0.46313861151924    2.77077733186560
C         3.73179733145889   -0.09697595339824    0.94381918880494
H         0.10160368407322    2.28931779668290   -1.15608310439719
H         0.61918039661795    1.09123251341239    0.05369484607207
H        -0.56537523652670    2.32861240900312    0.49557086876774
H         0.61635322214210    4.76441871894473   -1.11978579603049
H         0.13951885412294    5.10039856587634    0.55897130089599
H         1.72423916000433    5.63047709752499   -0.03311227562563
H         2.30808506227253    3.10123721519257   -1.89765844493107
H         3.70100850151505    3.59187018780365   -0.91734059396528
H         3.18392006173092    1.90079710248815   -0.92865364613148
H        -0.92382965839579    5.77429536685700    4.12560901371296
H        -0.90985657491265    4.94895909324478    2.55093677749753
H        -0.85060996325901    3.99574788014137    4.03988593157899
H         0.91788177483382    7.35885034294661    3.64492247274159
H         2.62394915193584    6.99704504556959    3.33186449967709
H         1.42973618707212    6.85927313064911    2.02198931471039
H         1.03157076182714    5.98505585727898    5.77344316063790
H         1.23514524867446    4.21654358258005    5.87384712173928
H         2.64272336468160    5.24985966407386    5.59649989627250
H         6.62183306512634    3.62717664353060    1.39384473281163
H         5.88819248163427    2.16050539727002    2.07819947410932
H         5.42877277490827    2.70417310708338    0.45436549977524
H         6.19318498284969    5.18358931357686    3.34076895255963
H         4.64091623751382    5.41052306486423    4.18106572154480
H         5.50438529699599    3.87403950352392    4.33347046566764
H         5.52605015972496    5.82865941517369    1.04048086756810
H         4.07083059547532    5.35969701067518    0.14313120706332
H         3.92609897392328    6.35495925858881    1.59694180749234
H         4.35483169919653   -0.92374734919890    3.63717834611756
H         5.15305818397975    0.66466499135699    3.61277380503355
H         3.78181913142691    0.39019524440797    4.69573346601104
H         2.01721561345105   -1.48686232125145    2.74028372482908
H         1.23623606644652   -0.24791121656044    3.75706405325214
H         0.85405509565037   -0.34015113739189    2.03334988981918
H         3.98517172619630   -1.12749015858998    1.19218781454321
H         2.99632834067045   -0.09970330526611    0.14058424963757
H         4.62974264113725    0.41964713872931    0.61248523272043
H         0.82659538463571    2.45411040624716    2.57120401604448
H         3.19310523642523    2.95056895302788    4.02294191100309
H         1.64373293075052    2.36318218657901    4.01016451453264

