65
CSD_code = ROGDIA | q = 0 | S = 0 | Stoichiometry = C22H40NiP2 | MND = 4
C        -0.29353182730366   12.35498228515841   -3.15939147692730
H         0.28042208602467   13.20804740925130   -3.52179960988031
C         0.12627311200802   11.10988515575344   -3.54461544868051
H         0.99608877735734   11.06787371295854   -4.20179295156497
C        -0.31531829434972    9.77927770370527   -3.10411481345657
H        -0.14957003790813    9.02476930183843   -3.87042805079466
C        -0.64734084051045    9.29026815048081   -1.89417765336061
H        -0.77722780537188    8.21195229807906   -1.84455996656805
C        -0.81329883382748    9.92035581843810   -0.60785214452386
H        -0.57097101256714    9.25529567325575    0.21602747227591
C        -1.30575918992149   11.12166437877911   -0.27289902806728
H        -1.41803513577053   11.31593269132430    0.79000608816568
C        -1.80713835468662   12.21040059355322   -1.07906648930941
H        -2.59718746457590   12.76494604153263   -0.57790637285900
C        -1.39507756627439   12.72591125172455   -2.25490285118997
H        -1.83601377586941   13.68965581707192   -2.51192997033853
C        -4.14944716857008   12.08430531430381   -6.39284984459693
H        -5.09804695088393   12.59069277765620   -6.58432692967704
H        -3.57895090467705   12.08225028840401   -7.32262175873967
C        -4.40145839295659   10.64690234762946   -5.93791723463284
H        -4.82853149161670   10.05635616655749   -6.75346716867457
H        -5.11519678460583   10.65939087759734   -5.11215864685040
C        -2.24664045653450   14.20788624190317   -6.29011577489773
H        -2.93808273968924   14.59799470364666   -7.04561484788369
C        -1.63999257104753   15.35859545472967   -5.49328750689563
H        -2.40606339588587   15.98748942140417   -5.04599822952799
H        -1.02496175872706   15.98387425824440   -6.13965219083194
H        -1.00779483814110   14.96387800256652   -4.69998365671431
C        -1.13622307753592   13.40251803953673   -6.96530323286435
H        -1.52661709478677   12.76107352460985   -7.75191220648045
H        -0.64577006785066   12.76645954091079   -6.21763333874777
H        -0.38864919825883   14.06011510104083   -7.40574675298931
C        -4.41342389391535   14.12159029837659   -4.31120562475553
H        -3.82194254008485   14.77267638828753   -3.65532279794998
C        -5.26724564044263   14.99951604510933   -5.21838787100367
H        -4.65614258609801   15.63882216866832   -5.85000629124649
H        -5.90506285050184   15.63783456663974   -4.60782209632651
H        -5.91467228757663   14.40217717312079   -5.85615168176563
C        -5.28089663646817   13.23453146943177   -3.42202540316767
H        -4.64882037118011   12.57422483231152   -2.82840257604466
H        -5.95166969114806   12.62515135095566   -4.02502341048918
H        -5.88643603030282   13.83701711027959   -2.74660371355430
C        -2.42659827558714    8.72125835966882   -6.72229893994802
H        -3.32587481423191    8.16868829866550   -7.01710947991140
C        -1.95842753381011    9.58387293525153   -7.89035768900589
H        -2.76907010762376   10.19701945882619   -8.27744592354925
H        -1.58919721400213    8.95947844512315   -8.70303651848951
H        -1.15057620429854   10.23797050882650   -7.56397941572774
C        -1.32775649384959    7.73913469727987   -6.33363177000792
H        -1.63508189773609    7.10423702676687   -5.50573995479283
H        -0.43133187481361    8.28327589690524   -6.04256236933756
H        -1.07610363325579    7.09867583978528   -7.17838930972793
C        -3.57778173197802    8.64465494474841   -4.03504038959156
H        -2.72768672488022    8.02947407876029   -3.71769251368748
C        -4.01554591979551    9.47472542795286   -2.82830358937365
H        -3.27961592990720   10.26892311584754   -2.64515800083151
H        -4.08215586729684    8.86046497272543   -1.93254167492211
H        -4.98715831833480    9.93515646489914   -2.99716748106170
C        -4.69347451348361    7.73078304825487   -4.52745212290180
H        -4.34483662793060    7.06110213446663   -5.30987348773000
H        -5.53450189831150    8.30440573389555   -4.91028535924837
H        -5.05285945458100    7.12037822058815   -3.69974036472424
Ni       -1.80951552949741   11.48736564516366   -4.24004233032254
P        -3.14062374619641   13.03174701066088   -5.14504301809302
P        -2.85680010557813    9.83346598813343   -5.28046424263336

