76
CSD_code = ROGDID | q = 0 | S = 0 | Stoichiometry = C32H37Br2NNiP2Si | MND = 4
Br        2.20499239096182   13.35757599327371    4.24484926388788
Br        4.93211717917775   11.85891598730077    2.88274034783446
Ni        2.69842347788419   11.54011204164509    3.00890428941156
P         3.08107138171258    9.48209394530027    2.54245065343997
P         0.68868632539535   11.54786490845436    2.30741219132263
Si        0.42168348141341    8.47325888627698    1.66105023944866
N         1.84644930749029    8.29395044858735    2.67413597171395
C         4.36474064972406    8.86211445045501    3.67994808238064
C         4.21268484715047    9.22936308129598    5.01670198097295
H         3.35650796033269    9.83099989555606    5.30928356678277
C         5.15825622813711    8.86598445003945    5.95329898617273
H         5.03684024134263    9.15915563896886    6.98529059003208
C         6.27475953817286    8.14558023977310    5.55720937894743
H         7.02263220272157    7.86867745242795    6.28486118395909
C         6.44511422547990    7.80601144863922    4.22632383466774
H         7.32869167915938    7.26925677854075    3.91410134760342
C         5.49723567198131    8.16459839202444    3.28269099811505
H         5.65212698205413    7.92110934815074    2.24197537244964
C         3.68851133341688    9.17437538508014    0.85492483095411
C         3.86286714955287   10.23967379711250   -0.01914646730188
H         3.68235782071331   11.25387469918710    0.32264510266264
C         4.28007918770202   10.01374144038653   -1.31850591497471
H         4.41978680538851   10.84609154569673   -1.99205082162690
C         4.52168582296849    8.72019227486869   -1.75002348606639
H         4.85353888040242    8.54198647324529   -2.76207621979917
C         4.33161102883049    7.65160603332617   -0.88687954047374
H         4.51169754031600    6.64248091790837   -1.22838612925926
C         3.90735105579150    7.87447522489920    0.40960140142885
H         3.72933168750517    7.04452271559209    1.07914998143991
C         1.97789989425428    7.19886953250656    3.62494191857528
H         3.03707409009007    7.12557772810453    3.88976880162423
C         1.55954467152440    5.82259477450729    3.10037592626033
H         0.62980608745131    5.89196517581542    2.54045830808279
H         2.32009142226798    5.38178498545195    2.45697219787642
C         1.33350149436858    5.03176376598527    4.38367944694973
H         0.77569264560047    4.11161566551705    4.21614542144593
H         2.29353757562452    4.77632428801649    4.83522978805508
C         0.57960853591646    6.02097550647220    5.27379473015814
H         0.68754443466790    5.78267970647038    6.33061571926278
H        -0.48353018453661    5.99645769492065    5.03165942790629
C         1.17105161282088    7.39386845682818    4.92666686900780
H         1.82869953765704    7.75286192282998    5.71891661764663
H         0.39078238561865    8.13762731943103    4.77850593277260
C         0.56562576879967    7.43290884172907    0.06045192809170
H         1.38616263901175    7.75895035682713   -0.57239595525863
H        -0.34836672585891    7.52150505778378   -0.51873261454276
H         0.71563365263246    6.37880032048572    0.26506884531762
C        -1.22394636188967    8.04488528248097    2.52608864890625
H        -1.26747690006696    7.00153891515716    2.81483321222363
H        -2.03732064181111    8.21630218703396    1.82785235266403
H        -1.42645122692955    8.64114316922213    3.40897321778893
C         0.30104915234960   10.27853711251132    1.04359598051306
H         1.00937013592288   10.41219204321681    0.22347197319250
H        -0.69984691818337   10.47023217211467    0.65287670292728
C        -0.61127046210499   11.26996690763231    3.54179942954807
C        -0.25059057996920   10.84150909762064    4.81283149639570
H         0.80024323441038   10.74302922474417    5.06421575319959
C        -1.22287380085299   10.56414938176742    5.75703477951580
H        -0.93855700963802   10.23381647187861    6.74493417831462
C        -2.56005072483885   10.71868256552632    5.43156460839965
H        -3.32185245108983   10.50783118448339    6.16725190811205
C        -2.92438571672552   11.15198481941723    4.16537432955602
H        -3.96814203599414   11.27845507194828    3.91780914490702
C        -1.95529085196051   11.42526545727863    3.21867960211743
H        -2.23607620941040   11.76936903369573    2.23257387263090
C         0.18545013010499   13.08701227795526    1.47670553713692
C        -0.45453913685417   14.09277199725870    2.19568127899063
H        -0.67574598795222   13.94780507425660    3.24344394961997
C        -0.78358593728647   15.28279556806414    1.57503300371783
H        -1.28001002785453   16.05814309151293    2.13864142261796
C        -0.46494119189529   15.48623503440686    0.24213077073210
H        -0.71679031010740   16.41974305109309   -0.23848533016633
C         0.19326540487738   14.49772715167057   -0.46994710487701
H         0.45969804623955   14.65918062658576   -1.50433443564289
C         0.52336251386564   13.30379628878977    0.14457673129264
H         1.05401424485322   12.54482474697306   -0.41471133969478

