55
CSD_code = ROGGUP | q = 0 | S = 0 | Stoichiometry = C20H26Cl2N4O2Pt | MND = 4
Pt       -2.05565553973062    1.58939473593817    8.69075334205349
Cl       -1.06364609643521    3.18641922272447    7.49469585906687
N        -1.21908427213724    0.07474544330846    7.69441694566862
C        -0.35593919957062    0.17466927017867    6.68605694888935
C         0.24769656884426   -0.92847409571398    6.10284487103983
C        -0.09139014892537   -2.19921537246607    6.57252410427345
C        -1.01438969247718   -2.30621693181103    7.59201786690811
C        -1.57026314420929   -1.15349641902644    8.14884655389386
C         1.18946840489868   -0.71802801623321    4.95355545201915
N         2.28150849189588   -1.51529852864007    4.98490483863152
O         0.95495993472404    0.07675597709927    4.07110437046865
C         3.34852372483914   -1.39390292780133    4.01572036928315
C         4.60569647532584   -0.78064482858773    4.63274734949556
C         5.77145380747613   -0.71720075826676    3.64637264602766
C         5.53009816032618    0.26085863466834    2.50293464655033
H        -0.13369273762083    1.17606506842369    6.33598027746139
H         0.33702160084944   -3.08524563250030    6.12886493568047
H        -1.30008566386722   -3.27803147051864    7.95951545955917
H         2.47312217861751   -2.06132707178480    5.81038143561028
H         3.57530506812655   -2.38574143537573    3.61017806087804
H         2.96237194315107   -0.75888299488053    3.21750066977334
H         4.90351311424360   -1.38141022881525    5.49732034820478
H         4.37211792222784    0.22518514035093    4.98702170067052
H         6.66665678728453   -0.41058581998712    4.19149555145101
H         5.95695031768401   -1.71504810521809    3.24174995504895
H         4.71064399025358   -0.06792962202324    1.86997056047799
H         6.42188410620760    0.34377236368069    1.88627403979498
H         5.28950198923425    1.24719770712184    2.89206022315575
Cl       -3.04756257859571    3.18746655890582    9.88650442709253
C        -2.54094276539333   -1.15353985306455    9.23240605182721
N        -2.89224557247833    0.07466527519369    9.68678499808354
C        -3.75543652999133    0.17457004105268   10.69510819740777
C        -4.35912743465531   -0.92854773046429   11.27824852309026
C        -4.01991586638355   -2.19927586619473   10.80863375536095
C        -3.09677591265222   -2.30627174367719    9.78925325238900
H        -2.81091118761437   -3.27808691855583    9.42189574799078
H        -4.44830827609491   -3.08531826922106   11.25227953549623
C        -5.30121867766752   -0.71794629817964   12.42726543316167
N        -6.39315122322262   -1.51537721806587   12.39583166800241
C        -7.46027024988425   -1.39407196006732   13.36491085856828
C        -8.71729239692400   -0.78061563053886   12.74776053072060
C        -9.88309828952668   -0.71711450084096   13.73407454521850
C        -9.64182041961004    0.26089854046152   14.87756983239945
H        -8.82250075569936   -0.06803338280721   15.51063293558236
H       -10.53366948645649    0.34396970581546   15.49412658024414
H        -9.40100299750329    1.24719345269978   14.48846446654215
H       -10.77823505840523   -0.41041468176822   13.18889613321607
H       -10.06872640745048   -1.71495851006063   14.13864210121326
H        -9.01510131332259   -1.38125401778279   11.88309763536943
H        -8.48357933711304    0.22523261771026   12.39362234264327
H        -7.68717414049005   -2.38594816057241   13.77030276303317
H        -7.07417548492656   -0.75915796274454   14.16324832949305
H        -6.58457236602817   -2.06142836909436   11.57032972747661
O        -5.06685409424470    0.07682152422360   13.30975601268449
H        -3.97787926889958    1.17596005380226   11.04504423365586

