58
CSD_code = ROGJUV | q = 0 | S = 0 | Stoichiometry = C27H22BrClN3NiOPS | MND = 4
Ni        4.58757675717132    8.42536246391052    4.29814064110988
Br        3.46879720402388   11.57135294937340    7.54251658615169
Cl       -1.72647846854714    9.64490839246024    7.53232019155792
S         4.73685901619425    5.21659624336333    1.34625986755591
P         6.44132143998732    9.37626062182359    4.96877814932191
O         3.72427654535319    9.53403125892506    5.46681370723059
N         5.34047579845794    7.27567241574951    3.04422033824970
H         6.29035597558377    7.15947291830661    2.70619522747311
N         3.17534336311557    6.53112727519567    2.95279564132115
N         3.01738194879949    7.48318779235170    3.88730174568075
C         6.50139842565085    5.47921666393095    0.96882887097704
H         6.74137557511528    4.75396667855185    0.19835501689495
H         6.65735851442207    6.48390203751197    0.58510730314258
H         7.11156622718788    5.29068503319315    1.84863210479746
C         4.42425258375571    6.45955206147724    2.55107282237464
C         1.83279966405561    7.65151142820333    4.39909079340729
H         1.04131142080258    7.00031597677666    4.03725138888084
C         1.50721324101755    8.60919919852315    5.40251076285884
C         0.20517847235985    8.67286520487074    5.92110107539813
H        -0.54504500394925    7.99630065349450    5.54249237731488
C        -0.11532085280215    9.58107606918699    6.90121787205453
C         0.84160606242759   10.46123005863569    7.40769940396977
H         0.58513576636200   11.16902244733213    8.17973689424298
C         2.11465870023096   10.40435118947350    6.90125515535419
C         2.50737666266627    9.50044171146668    5.88962838004176
C         6.42189097495570    9.18689774966331    6.77830278702680
C         5.81518257848724    8.03031374593049    7.26320318795631
H         5.40510796045368    7.31351585890406    6.55145509037126
C         5.71446242987697    7.81430255939333    8.62356021500966
H         5.23586857529690    6.92086833157813    8.99725351436300
C         6.21590678882048    8.75809742366678    9.50719991802230
H         6.12688797840115    8.59893179866102   10.57150946848812
C         6.81487078944899    9.91099100024078    9.02815895869517
H         7.19079577460278   10.65072857695524    9.71876456734397
C         6.91978354150722   10.13106516576769    7.66535748488397
H         7.36684971865166   11.04203091621696    7.29619305499552
C         6.72837435674041   11.15149741844639    4.71270723337391
C         5.63779086071738   11.96363636945271    4.42459094397172
H         4.65940821457713   11.51466253885008    4.32664953746558
C         5.80977643082241   13.32718991815327    4.27157197539836
H         4.96005793331019   13.95713427404051    4.05576877330612
C         7.07237084914333   13.88271511630453    4.39627202372661
H         7.20863840738137   14.94724946122424    4.27676762354370
C         8.16401962486756   13.07407388216411    4.67127223867814
H         9.14877669490361   13.50844559953962    4.76454082832241
C         7.99777529279328   11.71051773927210    4.83064401334810
H         8.85001177716461   11.07925402209972    5.04264281838632
C         8.03705198238256    8.64748849902838    4.47171039878510
C         8.82617298003704    7.88833549536246    5.32623464402370
H         8.52854487436040    7.75516371469274    6.35667979878787
C         9.99296735343439    7.30882127554625    4.85639297784254
H        10.60662297784274    6.72287692022493    5.52467943887297
C        10.37324991642704    7.47546761655823    3.53538462463292
H        11.28204779199713    7.01892080605206    3.17276364344492
C         9.58527076072866    8.22697896886789    2.67617927520908
H         9.88062166504533    8.35590190784023    1.64503943755383
C         8.42048619053336    8.80627914531435    3.14110026922716
H         7.79448091936414    9.39463744015937    2.48132692242562

