57
CSD_code = ROGMOP | q = 0 | S = 0 | Stoichiometry = C20H30P2RuS4 | MND = 6
Ru        7.55144374983084   -0.00391841539925    5.35949138386725
P         6.00568303604706    0.96532819435329    3.97246319506222
C         4.57309603172719    1.82672709266548    4.71610303600520
H         3.95252603473709    1.12341324659330    5.26691021987691
H         3.98386453037977    2.30632004156219    3.93467383607564
H         4.95912446222074    2.57745015549080    5.40557611551740
C         6.63006045079273    2.31313839846455    2.89910766688452
H         7.41304190810094    1.92576797440131    2.24714984289681
H         7.04229428315668    3.10898850813782    3.51998376374552
H         5.81243873373303    2.70691588573404    2.29504206860017
C         5.23062250335903   -0.10927562270373    2.71358261912574
H         4.71611746935284   -0.93472562079931    3.19979310296648
H         6.02865111732359   -0.52348878031258    2.09745286869333
H         4.53624236029255    0.46170252682803    2.09781784211045
P         6.00321064317723   -0.96741077164430    6.74770559010520
C         4.55430939953231   -1.80548271788612    6.00917463935417
H         4.92562598324623   -2.55135660686774    5.30644886627327
H         3.93407487905312   -1.08945541559059    5.47463592155695
H         3.96954898606602   -2.28923127676049    6.79135535781595
C         6.61956506576790   -2.33189640091225    7.80451652663749
H         7.01462611866164   -3.12803295323148    7.17297554036301
H         5.80212530170112   -2.71930527232364    8.41294536532353
H         7.41384381492401   -1.96128658074082    8.45243127116646
C         5.25222225323449    0.10837918240260    8.01986783301051
H         4.75476812977117    0.94959533996788    7.54279474422076
H         6.05962267593674    0.49957695003777    8.63891582712651
H         4.54707583610954   -0.45455012003163    8.63071149864632
S         7.63058901081823   -2.11099517808076    4.16857741755994
S         9.25756713113597   -0.83210565868770    6.73601284273431
S         9.26055207739740    0.81836510277675    3.98218555804066
S         7.64048483692949    2.10290451616413    6.55039128448214
C         9.55939524653552   -2.47935413914787    6.11595542959755
C        10.50578817583643   -3.24367711166587    6.78015038371935
H        11.01002626396394   -2.82445202231673    7.63978887003770
C        10.79946657219534   -4.52004532304247    6.34455518205149
H        11.54275665207206   -5.11082449121650    6.85728688704668
C        10.12332368176276   -5.03439679609628    5.24260476952462
H        10.34584117372342   -6.03247467549856    4.89453838658579
C         9.16805891112378   -4.28666518984580    4.59534549966934
H         8.63409398697277   -4.68115747819681    3.74442754706503
C         8.85428300268480   -2.98660984924686    5.01890424466028
C        10.78120922455370   -0.02433247147064    6.11473297204000
H        11.62686232373449   -0.58992533951627    6.50792030854202
H        10.77612664655819    0.98158503228377    6.54121619995116
C         9.56190114802667    2.46823491336391    4.59558936455671
C        10.50446235197025    3.23197825782324    3.92532739997954
H        11.00606365314086    2.81079111949402    3.06511075091910
C        10.79737529601776    4.51035328337089    4.35559090158098
H        11.53712901697490    5.10107560080319    3.83771588590598
C        10.12500471846824    5.02684108030610    5.45886371149546
H        10.34719066534475    6.02637911248029    5.80292484267417
C         9.17375978652837    4.27945342057552    6.11240930174277
H         8.64275737228110    4.67553799510457    6.96444224332531
C         8.86012128475361    2.97781085014230    5.69367419619938
C        10.78375684818803    0.01411480384351    4.60928380899740
H        11.62938422501970    0.58181939994045    4.21911584054648
H        10.78284295704753   -0.99191570587987    4.18303142574372

