51
CSD_code = ROGMUV | q = 0 | S = 0 | Stoichiometry = C18H24O2RuS6 | MND = 6
Ru       -7.96433075385313   11.20739988368319    2.00316253581734
S        -6.22685415935733   12.85295870485075    1.83307287675169
S        -6.32805120475750    9.56265842246840    1.65874617134118
S        -7.61962419931772   11.02742158601429    4.30874041673666
S        -9.60206713701578    9.46299192538280    2.18876111691077
S        -8.13562778466495   11.31878320761565   -0.23787005372573
S        -9.55239957804680   12.73966045446061    2.28849432467493
C        -4.86642717698114   11.90646392961378    1.31461521302247
C        -3.68509897716598   12.56994752343533    0.96365537819253
C        -2.57358125227512   11.86718817312841    0.55648225672255
C        -2.60304921796861   10.47981664611885    0.48389752266633
C        -3.76033998886457    9.80831692076325    0.82594216794336
C        -4.87543179000049   10.51279311136739    1.25001052080730
C        -5.88153827537898    9.07485998723899    3.37921503748104
C        -9.46657956128703    8.99386248154311    3.85216389583412
C       -10.23999549940456    7.91790681251903    4.31206758734485
C       -10.18668063581343    7.51193736383417    5.62477551622519
C        -9.36615850573537    8.16859733931242    6.53674795631529
C        -8.60053540495192    9.23420747712507    6.10967359727970
C        -8.63599050719397    9.63075869228755    4.78069845601024
C        -5.95965773692489   10.23668743156909    4.33792244193688
C        -9.71935606838589   10.79802916919017   -0.95240593672045
C        -8.01345057806596   12.93790909422574   -1.05356791386506
C       -10.87690830380313   12.31289739043004    3.46603517176684
C        -9.00291013653979   14.26104921971078    3.12199978870046
O        -7.10358640931362   10.48274996128382   -0.83801348587193
O       -10.21777666862784   13.15415648267427    1.06148871563770
H        -3.67291825937015   13.64784995746731    1.01797616043334
H        -1.67527048417473   12.40188242066935    0.28538159876975
H        -1.73478398249407    9.93037691849963    0.15474928611764
H        -3.81587253704939    8.73163621524906    0.76346650134411
H        -6.59304226176556    8.29212180226682    3.64997333720087
H        -4.87326112828212    8.66247582523089    3.34374614729963
H       -10.87860853766114    7.41822095497720    3.60068520647980
H       -10.79164003854432    6.67899449660098    5.95046151111143
H        -9.33032837042836    7.85394591766836    7.56788490059144
H        -7.96421870630848    9.76905521829064    6.79968570447737
H        -5.26977882071395   11.03555590532085    4.05888101591234
H        -5.77111985453266    9.92197029765479    5.36503925601060
H        -9.91876739166406    9.79108409763624   -0.59960258228307
H       -10.47533857017695   11.48724778456080   -0.59446246436371
H        -9.63255215963214   10.81182973809893   -2.03216818389839
H        -8.85667469527251   13.53480033571441   -0.72795153540660
H        -8.01899501801667   12.76886347956112   -2.12354273748652
H        -7.07626478953109   13.39150384713016   -0.74690190514072
H       -11.36483947045932   11.41743025643012    3.09350961062887
H       -10.42509428121523   12.12080731458306    4.43354783305148
H       -11.57916953853155   13.13674440626941    3.50614131356061
H        -8.21820265303648   14.69866283326815    2.51322705688970
H        -9.84248117751901   14.94047533818817    3.20712725046267
H        -8.60566976192371   13.98285524681904    4.09203444229483

