23
CSD_code = ROGQEM | q = 0 | S = 0 | Stoichiometry = C8H3F9N2W | MND = 6
W         1.93378680564339    5.56570779055624   10.57777776764379
F         3.49895576928473    6.65443250487748   10.71678674298256
F         3.01833060140517    4.32765379201002   11.44242248795749
F         0.80929470432582    4.40346733716068    9.66185921842431
F         1.51355889050441    6.72351045548772    9.11716886133157
F        -0.57881590926528    7.87250090510940   13.79270886476086
F        -2.12678439997737    6.66941752090285   15.66085457166251
F        -2.32224646022634    3.95976059811715   15.78742606014269
F        -0.93316905459218    2.41194861502245   13.99936446550172
F         0.67270058632813    3.65573644527538   12.06111671795291
N         0.87656230818205    6.23699583069484   11.91778659916260
N         3.26722120378758    4.76165895577059    8.89148214908551
C         0.08643255436115    5.78093621837601   12.87839197009014
C        -0.65265493688439    6.53369032614945   13.82705169022472
C        -1.44523965425824    5.92360951093684   14.78383746021521
C        -1.54937743016829    4.53326057150858   14.85365714379926
C        -0.84333511443301    3.74455055902416   13.94468433472277
C        -0.06052701595788    4.37100469344968   13.00074403446145
C         3.99960161881727    4.89786600227617    8.01788187309871
C         4.90480560948208    5.04837700599269    6.93740040605269
H         4.42924333552303    4.72132946402546    6.01230596666773
H         5.79821457802488    4.45059265633900    7.11997305662721
H         5.18354141009454    6.09919224094056    6.84931755743158

