27
CSD_code = ROGTEM | q = 0 | S = 0 | Stoichiometry = C8H12Cl2N2OPtS | MND = 4
Pt        2.81434435995353    0.69171563529124   10.78275042488719
Cl        1.81848860070310   -0.46591706608196    9.07876736154991
Cl        3.81628017615984    1.78486566586269   12.53525401619901
S         4.51204083101912   -0.77040245273864   10.67659087355042
O         5.45333603730727   -0.41947572124388    9.63429017722087
N         1.34474484682368    2.01081221661771   10.77948539051919
N        -0.94929285058041    2.49414490159718   10.92696773711629
C         0.06129818008552    1.66134060028101   10.93674195029290
H        -0.16089213748244    0.60911175213197   11.07796006196291
C        -0.69856221748066    3.78004498302414   10.73065672844319
H        -1.55655382258474    4.43765115914916   10.72706060110707
C         0.59619953898753    4.24543729744260   10.54152603197979
H         0.80963972909309    5.28834547637702   10.37646189655911
C         1.61218976054934    3.30660449386549   10.58100488517244
H         2.65446034904702    3.58342180959814   10.46357254839588
C         5.48081862953317   -1.12772995743311   12.19713489488420
H         6.52097296801092   -1.02473077441415   11.89599515034739
H         5.23637436920789   -0.38552201183415   12.95200283778700
C         5.12304769413844   -2.54691836893269   12.59187371868606
H         5.89866785381082   -2.98701924558481   13.21926222556877
H         4.18535960664351   -2.55372061090113   13.15162553149667
C         4.94835720998968   -3.32333908514539   11.28850419169642
H         4.57086431080816   -4.33040483142632   11.46796677670663
H         5.90781805696110   -3.39864685547199   10.77332875670031
C         3.98411331292188   -2.50966348076246   10.45002462470939
H         2.96085585770798   -2.57324953187837   10.81853681689222
H         4.00882874866544   -2.73205599739159    9.38745378956734

