25
CSD_code = ROGWIT | q = 0 | S = 0 | Stoichiometry = C10H11Cl3Ti | MND = 8
Ti        1.19582996279934    0.29686196284089    2.57849998227874
Cl       -0.85209023792268    1.00963441480287    2.57850001732810
Cl        1.83933272945412    1.51132981687339    0.92677567637441
C         0.26205612988188   -1.77959091182130    2.57849999901145
C         1.07989193414734   -1.68798887498527    3.74099537624102
C         2.40718405432931   -1.53262173149126    3.29024767688571
C         3.84462251107699   -1.68331504260795    3.71547946513795
C         4.59148571333411   -0.38242851191505    3.35178446196536
C         4.33207144499268   -2.60779271509058    2.57850000071941
H        -0.79884265108063   -2.00059318259024    2.57849999876283
H         0.74434377741043   -1.83285740442417    4.76180788293069
H         4.00732849790785   -2.02588217333645    4.73563613910344
H         4.09673147235580    0.49692391061400    3.76817441888511
H         5.60856725599439   -0.42150382095717    3.74232482465648
H         5.41173902103421   -2.75003055048535    2.57849999983474
H         3.83296047844869   -3.57590133892543    2.57850000057521
Cl        1.83933271852281    1.51132980488873    4.23022431130157
C         1.07989193606728   -1.68798888609616    1.41600462189354
C         2.40718405450688   -1.53262173250186    1.86675232333893
C         3.84462251060080   -1.68331504146666    1.44152053726602
C         4.59148570692337   -0.38242850702146    1.80521554229019
H         4.00732849656365   -2.02588216765558    0.42136386176307
H         4.09673145578840    0.49692391417194    1.38882559328717
H         5.60856724640609   -0.42150380654914    1.41467517241888
H         0.74434378045694   -1.83285742427072    0.39519211574998

