127
CSD_code = ROGWAM | q = 0 | S = 0 | Stoichiometry = C64H52N6O4Zn | MND = 6
Zn        6.71811747722121   15.81585566433129    5.84397075038724
O         5.04893560282592   18.13740796834272    2.63068134731248
O         8.97834065308468   15.05408342115607    9.42353687548817
O         3.90591766663023   15.16160960001620    9.03448187053022
O         8.92692705894314   14.91950652873820    2.26410031935526
N         6.04729146774685   13.99780613384357    5.41175032353588
N         7.38770511060305   17.63309626718767    6.28101649172567
N         5.19486879813847   15.94106751730772    7.38152557956976
N         8.19074773829527   15.57649767918409    4.27098310907619
N         5.49362939333886   16.71028239235031    4.29406605056013
N         7.99416655482492   15.03789553696320    7.41545402996601
C         5.13171480242524   13.28222161798657    6.10831642485104
C         4.90344299027280   11.99721582250809    5.52829728457370
C         4.02417062942002   11.09673678895433    6.09472378555849
C         3.34185512199245   11.44731865373449    7.26014565231981
C         3.55150175474842   12.70442932836756    7.82374187642481
C         4.42702364239161   13.63920595755570    7.27064982996104
C         5.74662630071677   11.96076467015941    4.37053146491037
C         6.42776526965078   13.21597011518546    4.37291711940574
C         7.35525953417376   13.48888748452286    3.35282876815362
C         7.54390686653728   12.52811561042180    2.35926193459697
C         6.87307520584607   11.30642371782936    2.35972365039944
C         5.97203305970403   11.02035590646867    3.38581594903913
C         7.12382253874143   10.32582124341663    1.29330745928530
C         7.27146596158115   10.73381391792577   -0.03075213687925
C         7.21870204209671    8.96663162449293    1.58503208586766
C         7.45521549454352    8.04422320551194    0.58318502820999
C         9.72019535771540   19.14228340343784    9.36723864942809
C         9.45155139889940   17.77475327708897    9.35337494679405
C         8.69768682845688   17.16735047750502    8.34901856812167
C         8.17026545177430   17.98019724847209    7.33111495234457
C         8.45076483158239   19.38039846694607    7.34924390097296
C         9.21818806639517   19.94895436115022    8.34555682399201
C         7.78466477261300   19.90440793524380    6.19412353830976
C         7.14641244928679   18.77606696142197    5.59496929374637
C         6.39072317995398   18.96364547453453    4.42488130905396
C         6.32295930133716   20.24710872855251    3.88263506781156
C         6.94933873071741   21.34441629950889    4.47097072137744
C         7.68103814415762   21.16655534178751    5.64553112489723
C        10.37960474527028   19.30381498253941   11.76334032770206
C        10.53460548729466   19.72448509437433   10.44407879982744
C        11.47927991186948   20.71058371540564   10.16695763645268
C        12.24610475206746   21.25794671616428   11.17833179127684
C        11.14517891822321   19.85406180491381   12.77406225911168
C         6.82809602498006   22.67790815487108    3.86367115608357
C         8.51847685459926   15.73730586953959    8.35068666966508
C         5.65733819717026   17.88476609776822    3.81204689666777
C         4.55485609475970   14.94463755276605    7.86765901384931
C         7.59855017389311    8.46191081757975   -0.72924861348811
C         6.88509525135331   22.84070666428729    2.48103556950141
C         6.77202900800159   24.09568292005121    1.91296946177204
C         6.59758389653923   25.21122581980463    2.71480897250550
C         6.53791160930450   25.06213803703510    4.09021581978505
C         6.65325780140947   23.80805847385300    4.65983080405637
C         2.40170485691044   10.50407597507176    7.88354630285848
C         2.70286524871396    9.14573554360800    7.95819167349651
C         1.81893482106548    8.25755158954413    8.54162229804345
C         0.61626778115463    8.70926752388448    9.05837906294863
C         0.30495720672862   10.05686835114882    8.98865807491566
C         7.50522603726095    9.81004053152050   -1.03194606132111
C        10.35706626483698   16.52208208006816    4.89564668196454
C         9.19043694564616   16.56579559183475    3.91341910092314
C         9.60196640571830   16.14945584302799    2.48158556060132
C         4.59421708328544   15.97715687699635    3.42253217515111
C         3.29193916374450   15.65665266630287    4.14975039854986
C         4.17042544949175   16.50200624147303    9.42044097570737
C         4.96357360935157   17.09425731663602    8.23192786496983
C         8.13844210754804   14.69874507733007    3.34075080341432
C         8.70181799914123   13.67990870633018    9.19807592166661
C         8.12256432760676   13.63498320139519    7.76457410666688
C         1.18920498883707   10.94659680764223    8.40823206827837
C        12.08170751548157   20.83266899248282   12.48585792846139
C         4.38955066348242   16.94457570817938    2.23294373365946
C         9.04696266045162   12.92409865809676    6.78066588887657
C         4.17784640816019   18.16279864848934    7.47766384303806
H         2.06977783983396    7.20785673525344    8.59644715446982
H        -0.07501106130055    8.01470456921304    9.51256839405829
H        -0.63403907961597   10.41495104367074    9.38595592103930
H         0.93200710992119   11.99372884728060    8.34167958585298
H         3.64706897539675    8.78859246700484    7.57280180896816
H         7.12663126586943    8.63480641669572    2.60915147299507
H         7.53192168928458    6.99423518056959    0.82696129177037
H         7.78273051255225    7.74073845228814   -1.51189961484033
H         7.61273422368203   10.14204696800313   -2.05468247710728
H         7.18374656870709   11.78220006156146   -0.27651158807953
H         8.26648655285802   12.73458101294970    1.58459676202082
H         5.43712010751053   10.08189682744492    3.39413197351720
H         3.84797657817421   10.13798386946576    5.62918816477021
H         3.02887431160184   12.97255379589993    8.72914110609608
H        11.00957043699872   19.52042315675260   13.79293087749401
H        12.68027675531175   21.26153305657417   13.27603626799698
H        12.97844099839555   22.01781672478696   10.94579643304277
H        11.62694534932759   21.03398157978772    9.14663852476456
H         9.63983362165369   18.55221034541492   11.99793637990716
H         6.39692804228356   25.92780997658982    4.72150653797190
H         6.50810308892479   26.19145946426877    2.27015225139366
H         6.82306097354330   24.20577760256936    0.83915552648863
H         7.03729925284872   21.97697984190140    1.85015234090030
H         6.58648570849338   23.69783758504117    5.73259591462905
H         9.86760749961061   17.14606095787158   10.12568593109441
H         9.40865177793800   21.01226336610720    8.34865250714885
H         8.18144036706380   22.00532588744874    6.10700838991314
H         5.72953061134164   20.39099111982066    2.99270556626499
H         5.92305917895323   17.50852814609298    8.55148605043960
H         8.73932260433218   17.56111808602833    3.93187007519040
H         5.07170614286879   15.04528966718239    3.10921746536275
H         7.13715822051366   13.16297069475267    7.74120024406154
H        10.67746566102621   15.98036876227580    2.38305210070471
H         9.27854879362898   16.86578462160758    1.71986758724835
H         3.21839027179081   17.01176089533203    9.58975171157876
H         4.74416572578001   16.49123622408766   10.35251125973480
H         9.63271048752120   13.11524947629108    9.29598811040733
H         7.99053554819973   13.33673903617004    9.95592140697525
H         3.33617088960593   17.17181734959625    2.04905986835743
H         4.84729468564419   16.58373008278987    1.30657050944123
H         2.79248278747435   16.57711573665023    4.44573612922806
H         2.63420013357063   15.08333685138305    3.50061236298459
H         3.50953030881610   15.07551691291681    5.04007685916529
H         9.11855022563425   11.86862836546718    7.03274236834077
H         8.65086677797604   13.02458970061207    5.77535972393440
H        10.03953481055033   13.36917596765787    6.81165033687248
H        10.83189373114155   15.54325346889481    4.86920318548881
H        11.08944239398486   17.28381570672118    4.63866685544512
H         9.99002527535247   16.70468063509934    5.90046326746095
H         4.03112850334876   19.03431703967393    8.11138039977211
H         4.72775323684682   18.45636699155278    6.58944553171641
H         3.20870000651398   17.77082566678755    7.17536639683678

