78
CSD_code = ROGWIW | q = 0 | S = 0 | Stoichiometry = C31H39BrN2NiP2Si2 | MND = 4
Br        6.25912517863470   18.54284631752811   10.17785257459865
Ni        7.33892101522061   19.83177715469465   11.55411315939122
P         7.15478067590654   20.84172267722025   13.87993251479279
P         9.60688230630435   19.82479471206894   12.72548988071277
Si        5.46196098806077   18.51091718699960   14.55799828585998
Si        9.32340567308486   17.18178833245685   11.20472818363914
N         6.82811667816677   19.29966817872893   13.83105834332486
N         8.93247379152634   18.82764800873506   11.66560105240611
C         8.41135077143946   21.13741971067035   12.65811271687793
H         8.80591520465618   22.15198773345966   12.56225549424332
C         5.77171389043488   21.88581389709657   13.30791738231485
C         5.44655800984504   21.74164108604166   11.96464243015942
H         6.11167808216390   21.14780332070455   11.29581659275703
C         4.32680830906458   22.34433662359831   11.42946933157635
H         4.08375082893297   22.21551651406998   10.38551598335041
C         3.51469131238631   23.10727000599379   12.25578708444154
H         2.63308527736532   23.58126030722641   11.85132844742974
C         3.82814719046192   23.25881156847516   13.59695169985002
H         3.19059159135075   23.85273558915186   14.23576202643455
C         4.94848556943873   22.64397122576429   14.12914306373251
H         5.18892169599298   22.75407718125880   15.17788202003498
C         6.12714036538459   17.02470841987267   15.55680008580673
H         6.69347530835255   16.34116418881116   14.93405667479724
H         5.29190546887629   16.47200506798610   15.97277270972247
H         6.76569966186262   17.32699714078167   16.38162451436696
C         4.28312707442209   17.89892234584871   13.19155003039178
H         3.91910827241953   18.72149534215287   12.58082884066012
H         3.42107649244726   17.40089806180296   13.62416884159317
H         4.76664951958543   17.19872347049134   12.51794248911038
C         4.44524498046920   19.62883940731172   15.72854259549234
H         3.83143782306180   20.32455741221387   15.16269031554570
H         5.07464942952810   20.21247040546108   16.39496433368669
H         3.77964572905442   19.03165502169959   16.34342385021042
C         7.62181862743093   21.53426363207158   15.49679794541684
C         7.92714179483469   22.88555511799062   15.61350253551120
H         7.84026426901769   23.53066420306775   14.74776005683543
C         8.32788677619921   23.39756840071987   16.83307487937937
H         8.56180343683818   24.44832339925667   16.92759761337363
C         8.42698412273731   22.56219036835366   17.93554348900325
H         8.73635394256310   22.96605441938583   18.88844139702629
C         8.13321392188733   21.21343390588229   17.81775766989746
H         8.21494255257160   20.56340668350688   18.67669015081791
C         7.73766997309004   20.69812464558651   16.59682104005034
H         7.51497417774457   19.64726449255614   16.47590950660802
C         9.54021648022177   17.13396806818454    9.31137697952478
H        10.29429849549350   17.84267659880692    8.97837268384936
H         8.61142574308130   17.36620889207266    8.80090380405630
H         9.85318560940057   16.14371224430506    8.99744769859758
C         7.96891264978142   16.00208167132266   11.85516837039144
H         7.39536105962167   15.59711257056164   11.02791841889930
H         7.27036180527883   16.54637378277447   12.48852218897608
H         8.37439240319271   15.16820309199473   12.42141157937522
C        11.02178290064126   16.84768339200621   12.02290470607286
H        11.40049339668480   17.73761444529084   12.51994121491916
H        11.75017461034983   16.55318269214878   11.27595144757474
H        10.96936899023372   16.05348765773596   12.75948462860361
C         9.94743741886909   19.23794134921920   14.40302183970743
C        10.54704818207506   20.12605764594730   15.29028662056058
H        10.80308994381201   21.12587561923977   14.95921243989523
C        10.80201742004638   19.73088312743210   16.58969904659766
H        11.27343722777281   20.41641224869595   17.27894609550042
C        10.44259018857634   18.45840406992326   17.00644808918045
H        10.64247911512162   18.15123167930102   18.02256930545818
C         9.81936037703391   17.58552899175912   16.12870681101174
H         9.52668852395756   16.60104797319898   16.46284342975144
C         9.56981921536030   17.97221772997719   14.82409494489879
H         9.07284737899612   17.31319233685396   14.12947294041042
C        11.17275768446145   20.43746683670513   12.03901081140335
C        11.06123091878901   20.96568567314727   10.75630930868944
H        10.08646317704326   20.98674891504102   10.28133684453850
C        12.17991347927169   21.43526076093972   10.09627930195896
H        12.08982430683155   21.84684551498041    9.10191335893258
C        13.41945250102988   21.36949265720812   10.71400963179305
H        14.29766717168406   21.73302175437018   10.20143831926847
C        13.53594571047485   20.82876761976419   11.98379239478234
H        14.50447762702004   20.76714993896131   12.45823357229318
C        12.41649754773122   20.35920949845618   12.64938436140571
H        12.51430297925868   19.92886006690626   13.63666697787330

