25
CSD_code = ROGWOZ | q = 0 | S = 0 | Stoichiometry = C10H11Cl3Ti | MND = 8
Ti        0.25343801942772    1.07251201261433    0.01460947405307
Cl        0.91037203351187   -0.95155120114873   -0.32855385774119
Cl        1.46763740456467    2.03624892693845   -1.47257922945089
Cl        1.42905891995567    1.47334497031114    1.76702911478361
C        -1.47324087544009    2.20467753547745    0.91463173857806
C        -1.76018341042470    0.83934238273651    1.12811658891774
C        -1.90669361481762    0.24956177454191   -0.15762265384389
C        -1.73171262226639    1.24263495424206   -1.16039401471464
C        -1.45577886270505    2.45155099995905   -0.48634083430111
C        -1.37049351206059    3.94193651565492   -0.65640894656639
C        -2.75204714810885    4.47552986218605   -0.20707109348694
C        -2.77048196409396    4.20815938865075    1.31336556234637
C        -1.39807022917767    3.54678288591268    1.58589006232860
C        -0.51481753147904    4.30136080063213    0.57356726149757
H        -1.93596790499625    0.34308220438448    2.07558479651505
H        -2.20010019024866   -0.77701593897407   -0.34226840374644
H        -1.88231556444812    1.10065477922494   -2.22435351594232
H        -1.02810201532488    4.31207683522490   -1.62088220723385
H        -2.82921466578778    5.54073143730065   -0.42046200038016
H        -3.56113065839510    3.96270798768848   -0.72471215911016
H        -2.85602445132438    5.13713795524790    1.87534620444115
H        -3.58991322972321    3.55369574939157    1.60612835512381
H        -1.08025413605612    3.56332262736618    2.62665354098268
H         0.50421006449982    3.90137929537552    0.51549953255643
H        -0.48557385508360    5.37353525906264    0.76292668439281

