49
CSD_code = ROGXUH | q = 0 | S = 0 | Stoichiometry = C20H24Cl2N2Pd | MND = 4
Pd       -2.58937022560016    4.94814286718076    2.57450482626760
Cl       -4.20001947493789    5.22651915801386    1.05262959938383
Cl       -3.16472699481186    2.78933455387500    2.58326327957603
N        -1.41738933262715    4.82353441229937    4.26306386485751
C        -0.85912010854926    3.79644835639200    4.88339528344362
C        -0.69333749304012    3.80637935815617    6.28051015786393
H        -0.28933466486032    2.93009813007185    6.76252348465037
C        -1.04747467467564    4.90858358217985    7.01605900012253
H        -0.93869001785417    4.92219137652600    8.09040863092375
C        -1.52330520385535    6.05336887978850    6.35027871716259
C        -1.80082615405332    7.29234502118925    6.99235016100453
H        -1.70090772696398    7.34217799026667    8.06637789612559
C        -2.14441928858328    8.39205154249117    6.27520071687955
H        -2.31989039097699    9.33827688871879    6.76507937948369
C        -2.26008024445139    8.33957122438685    4.85840776705614
C        -2.50145636114034    9.45927608037904    4.04249709590160
H        -2.65159833786761   10.42817629052742    4.49539868880100
C        -2.50160683901063    9.30545298068598    2.67902120810740
H        -2.63209531094931   10.15908992320002    2.03223138646214
C        -2.35059296510366    8.03134726776772    2.09976189716978
N        -2.22153966025158    6.95879892691529    2.86619896894867
C        -2.10516794580618    7.09977565097047    4.20541462085697
C        -1.70721257032420    5.94951002849335    4.95725695366050
C        -0.33147984982925    2.67394650731602    4.05091178992711
H        -0.63352674613713    2.83816903564552    3.01048889650280
H        -0.76392353753053    1.72890477553771    4.38395677397648
C         1.19843094659257    2.60034500864334    4.13212380446523
H         1.51333144407849    2.42255865325755    5.16310914836356
H         1.62178851547677    3.55737268367057    3.81612197064678
C         1.74076588236471    1.48762536628748    3.23883390168598
H         1.32186719787286    0.53201587472790    3.56015401208936
H         1.41501616437188    1.66156227082958    2.21174185184555
C         3.26222328836482    1.41767205406094    3.28618427023241
H         3.62644934900547    0.61865629314320    2.64532548945566
H         3.60651416918916    1.22668109039635    4.30059476353674
H         3.69940325323402    2.35468945218180    2.94759339860311
C        -2.30496031594504    7.85645212270166    0.61811570610321
H        -3.02632803461532    7.07824506362036    0.34265587628323
H        -2.59178486701844    8.79310366576962    0.13868441885343
C        -0.91815971011647    7.43655570340054    0.09657324780768
H        -0.16193302282344    8.14350717279049    0.45114725128767
H        -0.95298839591329    7.50958712821055   -0.99233881090408
C        -0.50211479949143    6.01164172800732    0.46863780692016
H        -0.25490040751665    5.95921184928232    1.54018833391279
H        -1.33519022195368    5.31859022181276    0.25319052868384
C         0.72294436791720    5.56786905725527   -0.32591380339721
H         1.00997374543023    4.55759983036389   -0.04594420086134
H         1.56569680922580    6.23095535544946   -0.13758920411464
H         0.51134676202344    5.57893154514910   -1.39258080659365

