76
CSD_code = ROGXOB | q = 0 | S = 0 | Stoichiometry = C33H34Cl4NO2STa | MND = 10
Ta        4.02753364831947    6.42892074193955   18.73547305280110
Cl       -0.03312289194737    4.78536234368785   20.69023308275453
Cl       -1.23597191862487    2.51997590666861   15.95835534518610
Cl        7.97617917874924    5.06016673661450   16.37654541218944
Cl        4.82893664819830    2.82657434571715   12.62482045951663
S         2.75536147125479    6.24827857532460   16.36249305589943
O         2.11095291905024    6.07551084032288   19.15403228296600
O         5.44779827763207    6.17765187460473   17.36240485863400
N         4.90063434925491    5.72400735602197   20.30694262403420
C         4.57679420240717    4.51372098764945   19.64708251346731
C         5.75376519301544    3.67725984437044   19.16174204713644
H         6.47759746156478    4.28825005753064   18.63339861079213
H         5.39967658243678    2.89568945675475   18.48968653401610
H         6.25208889361344    3.19992646574638   20.00653481265408
C         3.56968483125060    3.61456955538191   20.35237531451236
H         4.02873389981711    3.14363188968428   21.22266638616008
H         3.23762092089203    2.82786958500735   19.67516765450496
H         2.70364701448324    4.17865146683157   20.68126114379784
C         2.81982363185516    9.07032706330556   18.16709004352569
C         3.06706526816427    8.86082125042332   19.52628914814326
C         4.49284079970496    8.70524260508964   19.70469240126982
C         5.09431088642662    8.92882917057704   18.41019880660853
C         4.06790670263046    9.11162866684602   17.47987586303591
C         1.45990035835645    9.25694878584148   17.57585377424478
H         0.76074964228115    8.53035220395784   17.99273321593275
H         1.47380459919711    9.14251234803313   16.49410336388968
H         1.07662966894217   10.25257241465041   17.80675661810398
C         2.03400065216686    8.91888670605114   20.60649713211335
H         1.52902545333683    9.88562872850828   20.58735766862737
H         2.48327380537455    8.78326987062950   21.58575707133467
H         1.27591048634068    8.14767681229827   20.46361610248188
C         5.20057559196408    8.94097982556650   21.00520084047982
H         5.26684087898373   10.01435245600419   21.19397703227675
H         6.20750111832482    8.53404641691086   20.98578865701351
H         4.66916439325541    8.47997662604349   21.83282975907229
C         6.55515239399214    9.06225615369708   18.11770538477877
H         6.87484297732181    8.32439938052655   17.38055352781012
H         7.14813529559456    8.92812865457161   19.01750320963900
H         6.76497050016815   10.05109237033921   17.70786532049993
C         4.28192228647180    9.35288730173783   16.02039447496621
H         4.58760742414617   10.38602967481364   15.84496360230002
H         3.37634597486897    9.16690788594143   15.44656224806493
H         5.07277415642023    8.70549747544428   15.63914950785508
C         5.56713008649988    5.81423144191392   21.54342648495244
C         4.83530561113142    5.85550094732152   22.74079939096207
C         5.51176218501815    5.89860629151474   23.95225686153834
H         4.94199629598151    5.91944200450124   24.87029183552121
C         6.89248085670867    5.92477936343167   23.99775223523852
H         7.40581444694104    5.94790704365277   24.94734601248252
C         7.60929139550236    5.95662211860544   22.81694447599511
H         8.68762456557324    6.02278241943164   22.84295441736404
C         6.96671009329916    5.91481108501460   21.58715743430932
C         3.33573986264487    5.89993510729991   22.74088592528522
H         2.92131561102824    4.92097866357037   22.97729215093009
H         2.96195495442971    6.21457460905047   21.76801956882553
H         2.98647559507407    6.59503467485456   23.50304052584906
C         7.78340205397926    6.02376812462599   20.33345438521270
H         8.24939825119812    5.06923909717959   20.09314144556450
H         8.58202109470975    6.75064931596424   20.47439705476540
H         7.15989261776329    6.33180176915899   19.49588862056732
C         1.34269817610701    5.30385256311984   18.44472285534277
C         1.54444154957806    5.13568214162239   17.05922267666577
C         0.75112129558508    4.30851624701724   16.28605152035921
H         0.91529113792748    4.22300499780125   15.22463694647427
C        -0.25907656539277    3.58654395324130   16.89857644839099
C        -0.51248558687370    3.72875828958342   18.25669581412388
H        -1.31675517085270    3.18367115153042   18.72373580829510
C         0.27228229666036    4.57902296387425   19.00852127393513
C         5.32172885640827    5.44821343667399   16.29474179807503
C         4.06680699642335    5.24343329232358   15.68515322114934
C         3.90706237389831    4.46633150442942   14.55270918769240
H         2.93874783922116    4.35609036858838   14.09317282165993
C         5.01309644146561    3.82948426185280   14.01623728280956
C         6.27450294699286    4.00736647847656   14.56983341228583
H         7.13623691846343    3.52820001704225   14.13401658099166
C         6.42049928923940    4.80899537805716   15.68329356129746

