49
CSD_code = ROGYIW | q = 0 | S = 0 | Stoichiometry = C20H24Cl2N2Pt | MND = 4
Pt        4.36062741323599    0.26320209420840    2.66054796208914
Cl        3.76566137494657    2.43681837591592    2.75598031738914
Cl        2.79638746541387    0.09155482056615    1.04465981704354
N         5.54054593166420    0.34489588323690    4.31182241073637
C         6.14952556080442    1.35653208476505    4.91804275117513
C         6.40723900658539    1.30846494400989    6.29875343710738
H         6.84053290148599    2.17421685836795    6.77393991339575
C         6.10503244443731    0.18947021890597    7.03278055023318
H         6.28037009977640    0.15377561338301    8.09741409615291
C         5.59855780097589   -0.94278684110314    6.36978093815068
C         5.37175824024753   -2.19935321542896    6.99628823173748
H         5.54409447093653   -2.27661407374890    8.05929815218149
C         4.98282702851263   -3.28048131501954    6.27447918158930
H         4.84017101828162   -4.23977705646865    6.74912746110419
C         4.77689868292292   -3.19206328440875    4.87007067077435
C         4.48228886628546   -4.29326253797711    4.04779008417622
H         4.35541555434055   -5.27186046951432    4.48610514306601
C         4.40449635871331   -4.10466815052754    2.69148075994121
H         4.23470190215104   -4.94148494354088    2.03205710927216
C         4.53194025639281   -2.82126912601799    2.12962477295755
N         4.70215166212502   -1.75875666196376    2.90782350787408
C         4.89261937487317   -1.93736598061717    4.23918830380636
C         5.32256943585818   -0.80662101100522    4.99595526829419
C         6.63659623913970    2.50467729161273    4.09715614534702
H         6.19861512995105    3.43470931915256    4.46345743589542
H         6.31171895218720    2.36418960006216    3.06365276258763
C         8.16685412589943    2.60258699273242    4.13868962933418
H         8.59693665633199    1.65729331434467    3.79838203502621
H         8.50807087710631    2.77247458860303    5.16231017157369
C         8.66722387755710    3.73580557830724    3.24680936534310
H         8.23024378174136    4.67806435617775    3.58284087258929
H         8.33072237452172    3.56252968653715    2.22331172188182
C        10.18695631755322    3.84282738052889    3.27278460179762
H        10.52305910386478    4.65167564157123    2.62903402304318
H        10.64163327734121    2.91731718539203    2.92602247197391
H        10.54067535077888    4.03966073626751    4.28278819425008
C         4.53299625255090   -2.64775686989622    0.64932143740595
H         4.09517797089718   -3.52980220122705    0.18065309714181
H         3.92953432382903   -1.77257952998459    0.39510289288524
C         5.95236729118115   -2.44068925780880    0.09242638617188
H         5.86421539356183   -2.36680140923827   -0.99280877368703
H         6.56921697559105   -3.31583652808479    0.31752038119900
C         6.63899025375307   -1.18187814652447    0.61801112627630
H         5.92952494356866   -0.34246121541553    0.58544859449240
H         6.94373236646446   -1.33290357373022    1.65707550628336
C         7.86951123020713   -0.82656963343971   -0.20833950416174
H         8.35744875994071    0.05649444035441    0.19635409719527
H         7.59068547435413   -0.62039461267092   -1.23887448868930
H         8.58477984914556   -1.64729935963398   -0.20444102340995

