37
CSD_code = ROGZAQ | q = 0 | S = 0 | Stoichiometry = C14H18ClN3Pd | MND = 4
Pd       -0.17767874870668    2.65969650261163    2.70641713517697
N        -2.16254931213701    2.70620596830934    2.43154938783469
C        -3.00912433428358    1.72792744103814    2.75719780192004
C         0.06979923295732    5.06478050938707    4.68904845859180
C        -4.35086554369845    1.79378333952521    2.40521200810177
H        -5.01438836074692    0.98359236656410    2.66195968359486
N        -1.68580621365676    4.84970119685541    1.58410832600499
C        -4.81517471642232    2.90571210184545    1.72240401280260
H        -5.85105092551384    2.97862736606578    1.42892545286326
C         0.14083803876219    7.24028406877966    3.71983967308824
H         0.44453398280765    8.27640028463012    3.74120921128570
C        -3.93982861212769    3.94272944943793    1.44652444401598
H        -4.29100318916853    4.83747916413408    0.95987183791520
C        -0.57481306764763    6.76181299127473    2.63462457880762
H        -0.82420048035374    7.42387767314266    1.82353422061557
Cl        2.00905753708817    2.85600206268835    3.02180306310752
N        -0.62874828741615    4.61621471655853    3.65291317631944
C         0.46489934431735    6.39585412943281    4.76685278965968
H         1.03080837752904    6.74686688284553    5.61428641917673
C        -2.60689243721173    3.81618810052807    1.83062300230212
C        -0.94901206632649    5.41641273499157    2.63102199921466
C        -1.87161964592026    5.62645519145447    0.37595856859618
H        -2.27111414393304    4.97404104970141   -0.39885769843272
H        -0.90092116279976    5.99333611828882    0.04215551610930
H        -2.54856387528746    6.47766584694561    0.51164531139435
C        -2.45679887524726    0.56881400084091    3.52590108623502
H        -1.43645042044741    0.80764217507667    3.86604255482285
H        -2.41308670470620   -0.31881871531586    2.89604560551679
H        -3.09076180291599    0.34589206267179    4.38207533545355
C         0.41309341909215    4.05408635835934    5.73418254961466
H        -0.05748067193448    3.09531906842310    5.47966687871665
H         0.09346716244137    4.38070400299087    6.72266047402962
H         1.49304491763321    3.90599136830367    5.74527224586146
C         0.16478333809565    1.07490294608169    1.45509753989878
H        -0.76539519377445    0.70898043704628    1.00137428912249
H         0.65957083691725    0.25566526620435    1.98758847884230
H         0.83683260474576    1.42287377228268    0.65996458181874

