90
CSD_code = ROHBIC | q = 0 | S = 0 | Stoichiometry = C46H41AuClP | MND = 2
Au        2.61567200983056   17.66733364619928    8.03847056072261
C         5.76638891329766   16.66726206255110    8.11847555351728
C         6.25739262636496   15.72442871621429    7.27863977885865
C         6.03517634555576   13.21589640753385    6.90272345090704
H         6.86312069362304   13.17513081692356    6.21231528152977
C         5.53129494572771   12.05478403214243    7.42770235220444
H         5.98329231208210   11.11032650122525    7.16401012696340
C         4.25183398307494   10.92433623902983    9.21156416188982
C         3.51231271211875   11.06268665980092   10.35944446646101
C         1.89991603212100   12.38956723522660   11.71439327056031
H         1.92923499204536   11.62792669200895   12.47852686152661
C         1.07821866236269   13.46148435308090   11.84836219795075
H         0.47699962677871   13.58593935971153   12.73739173561348
C        -0.13910944092587   15.31911617262425   10.77953145915412
H        -0.72703931898081   15.44004459519764   11.67828169988806
C        -0.44432618039245   16.02728690628993    9.64645440792567
H        -1.25803140682267   16.73608184073818    9.64338738899045
C         0.27025306957413   15.79732409513186    8.46650934704800
H        -0.04243644797032   16.28248310648475    7.55484549278598
C         1.34842829373360   14.94368018859877    8.46418125193919
H         1.87415453593929   14.74059052358282    7.54015017517210
C         5.55339514767290   14.44673746355217    7.36592360955089
C         4.41785482062561   14.46994800215252    8.18181845527923
C         3.84046647550558   13.28762109393989    8.67824766942621
C         2.76557607197742   13.27260348444631    9.62362002126517
C         1.71608671493814   14.24321366734845    9.62610924173461
C         4.23155284283224   15.98050612248270   10.54748060002645
C         3.27000429604599   16.60084674772154   11.33522637321216
H         2.52666759908207   17.23331587614805   10.86601388247981
C         3.26280290311420   16.39103920332913   12.70238331797870
H         2.51059777105054   16.86528651962871   13.31455131606845
C         4.21241792621710   15.56560171899703   13.28065764922498
H         4.20015437585553   15.39453886785136   14.34683099247372
C         5.18090249153894   14.95772130995726   12.49584377758466
H         5.92535262723931   14.32130621549820   12.95150769881096
C         5.19448194286098   15.16082956449343   11.12984666423486
H         5.94155849021342   14.68685293895756   10.50729818377232
C         6.34493586935342   18.00562401268659    8.45723815203960
H         7.39370528501851   18.03135756909261    8.15145005560105
H         6.31494387136924   18.11891513672787    9.54694189806900
C         5.61512805993124   19.20317352473705    7.83565828009541
H         4.60521933523471   19.26514570027550    8.25320021832068
H         6.14590133203635   20.11459185159756    8.12011287278150
C         5.51406651725832   19.12541233421450    6.31683528907864
H         5.00384303136047   18.19740262382457    6.04283808991427
H         6.51784263996193   19.10145553474651    5.88395232053364
C         4.73404302117516   20.30450607435278    5.75105732404977
H         3.71829294108836   20.30572960339347    6.13925661048042
H         4.68528777923861   20.24489708924837    4.66641017746810
H         5.20880641977686   21.24470733912310    6.02350546354225
C         7.45414479880610   15.85899508814251    6.39317294841985
H         8.13084861145565   15.02160154235329    6.57596807364210
H         7.99147955835378   16.78114883797897    6.61520354385207
C         7.03410917778375   15.87512195894513    4.91712645089502
H         6.47982352924171   14.96454680099668    4.68142310480139
H         6.36004692079404   16.71907781271073    4.75890445245056
C         8.22323590721450   16.00375185169123    3.96579520646424
H         7.83983904920557   16.19438831629837    2.96098597906894
H         8.82806175559537   16.86581908065031    4.25612013866988
C         9.10051420507813   14.75760784593598    3.92643375621481
H         9.58085102138659   14.58176414157195    4.88602477031316
H         9.88071859447153   14.86971404961093    3.17722699060926
H         8.50645719209880   13.88248308438568    3.67040526115169
C         4.89308103652708    9.63623388676731    8.87753172507018
C         4.54765533483190    8.97790461451208    7.70087024366585
H         3.81711316605698    9.42305414854147    7.03974461171119
C         5.12112902455790    7.75988165415695    7.38569709933405
H         4.84076906602225    7.25446264384290    6.47302098279253
C         6.05127182935469    7.18883723123816    8.23789685547093
H         6.49865944771016    6.23738876032393    7.99170093347613
C         6.40761922464469    7.84306349471416    9.40509927562037
H         7.13663950952114    7.40419591655813   10.07031550669860
C         5.83252934594966    9.05899876985526    9.72482392199299
H         6.11589033042906    9.57085282158833   10.63272620008692
C         3.44587175412192    9.95576719414608   11.33575299667777
C         2.88753627642817    8.73090838837813   10.98869337696387
H         2.47481957296668    8.59626270010469    9.99965757210953
C         2.85395998870153    7.69467319122045   11.90355391808590
H         2.41639213938170    6.74756592542033   11.62446002671346
C         3.37875598569412    7.86849216161611   13.17301746074446
H         3.35435588360846    7.05740990474049   13.88552306191683
C         3.93513913882848    9.08617250023327   13.52697877089326
H         4.34728837913752    9.22632727312361   14.51584071568886
C         3.96721779935992   10.12509490127018   12.61516698882605
H         4.41018657332760   11.07423960120458   12.88523434913393
C         0.89745114847298   14.37025120965314   10.77547922811232
C         2.74201784652877   12.24661271696690   10.57936543998044
C         4.50871020777127   12.06848954847035    8.39467753348284
Cl        1.17028292723423   19.30735312031358    7.39057019461510
P         4.14369118263945   16.16498796893196    8.74833310689206

