37
CSD_code = ROHCIC | q = 0 | S = 0 | Stoichiometry = C14H18AuClN2O | MND = 2
C         2.58681768162189   10.99854124880213   -0.30752991063179
C         1.18337558819262   11.89709221081155   -1.78963422492460
H         0.51777805962678   12.63104057250203   -2.19517394043434
C         1.57215952351389   10.69143518497319   -2.26995465255055
H         1.31226231920504   10.17631334949201   -3.17165982164548
C         3.07150874607307    8.89642700964688   -1.45315020297075
C         4.31630561057621    8.81604771828347   -2.07393510043739
C         4.92353922901721    7.57369966954389   -2.16769118375940
H         5.89144383701218    7.49734137387168   -2.64085566125750
C         4.32117941307164    6.43267230374076   -1.65668960534251
C         3.08259221497328    6.54779790140234   -1.03974108280705
H         2.61031566821761    5.66695380722527   -0.63024381240421
C         2.44138518988710    7.77059958734961   -0.92560826847371
C         4.98397494882905   10.05190122896933   -2.59490977549553
H         5.90512127239686    9.79949961532963   -3.11195723239795
H         5.22506680589773   10.71853767626544   -1.76607007518418
H         4.33317912386709   10.58950590631902   -3.28467161576835
C         1.12089279944097    7.89852795501523   -0.23068037112835
H         1.23496303797643    8.49775422627044    0.67320547331679
H         0.74018329549266    6.92071891753088    0.04956233442746
H         0.38648806902342    8.38971436588861   -0.86883230297085
C         4.98448956470624    5.09654417327112   -1.78080378608822
H         4.77349718293604    4.47925535208315   -0.91110180199143
H         6.06079302142024    5.20535602203691   -1.88467076615439
H         4.60864316572085    4.57581785913718   -2.66222381239008
C         1.71604605812576   13.24568736886759    0.23253514485114
H         1.85904672473252   12.96134721898690    1.27672051754157
H         0.72576267965898   13.68666170773525    0.09766953260208
C         2.79233912392442   14.27665302755951   -0.15467026340628
H         2.70119766282209   15.14481225932435    0.50023151266375
H         3.78461860807632   13.82859517079173   -0.01310210195937
Au        3.78513608426282   10.67484010488588    1.25120963794786
Cl        5.15082194178472   10.31515840735282    2.99140336676212
N         1.81284302821227   12.06468194025711   -0.58370081228491
N         2.43149673902828   10.16166414696906   -1.34611997803836
O         2.62939023796933   14.75997962655632   -1.46212711577995
H         2.83724574270899   14.06032378495718   -2.09202824144144

