62
CSD_code = ROHDUP | q = 1 | S = 0 | Stoichiometry = C26H30ClN3RhSe(1+) | MND = 8
C        -0.67983600810976    3.75716636325049   -0.02545866980838
H         0.13145555685276    4.01701625853570   -0.69145795598232
C        -1.92986806645006    3.43041416514576   -0.52376765830328
H        -2.09934433988814    3.43179290402670   -1.58923629935181
C        -2.95985944643254    3.10678924635271    0.34391859951536
H        -3.93385670205625    2.85479461871356   -0.04545892941753
C        -2.74174401284677    3.10184695986141    1.71335154927570
H        -3.54422619668941    2.84512484613056    2.38884183107873
C        -1.49362454179130    3.42038968019091    2.21748416209907
H        -1.31595706994092    3.39888718915082    3.28588134324019
C        -0.46671138621413    3.75807838472458    1.34618496305039
C         0.76543362139791    5.70664246436901    3.18109616627736
H         1.63005144218106    6.37597071595760    3.20446260999019
H        -0.08140758630976    6.22003992693982    2.71968993196670
C         0.45306897136606    5.21854484254567    4.54326586032203
C        -0.13648628139277    5.81567381673439    5.63839740934173
H        -0.52993714373146    6.79944108349741    5.78074461489464
C        -0.69770951679640    4.93480386194246    7.92746894755304
H        -0.89645240491392    5.97926996976987    8.17011179960962
H         0.03315510324385    4.52603479953420    8.62921075228890
C        -1.96672289751356    4.11303877775021    7.95204949091691
C        -3.20322331775007    4.71383409010604    7.76367374071484
H        -3.27124272158402    5.78555250575167    7.64473615139731
C        -4.35382614722726    3.94349680600260    7.74411450542227
H        -5.31345474375442    4.41784598528119    7.60861577885283
C        -4.27269657123185    2.57021911042396    7.90014839266502
H        -5.17007221147574    1.97141200562065    7.88653850039861
C        -3.03918490786270    1.96615734154888    8.08140579719526
H        -2.97371862238048    0.89652475219636    8.20996665188111
C        -1.88932667258980    2.73491010500983    8.10712019886761
H        -0.92639494127613    2.26956012372305    8.25844016518209
C         0.79002360566898    0.75026454757284    4.27132768640129
C         1.99140081939113    0.87974272781982    5.07653393770711
C         3.11394752650059    0.86788259786395    4.19935308557425
C         2.61500011201191    0.86213700450449    2.85217894660143
C         1.17723292394231    0.69839711589275    2.90654136317893
C        -0.57719569366869    0.52735406675552    4.82902489562022
H        -0.64272540272047   -0.49117196136944    5.21345251399080
H        -1.34174089382290    0.65403348643485    4.06681929681153
H        -0.78231410343361    1.20972120587583    5.65245194396922
C         2.02247866522745    0.79905615853897    6.56632058638186
H         2.92532199601142    1.25314425893217    6.96629705879658
H         1.99900225076487   -0.24838409073210    6.87089657408368
H         1.16070496894519    1.30367608140378    6.99542427919110
C         4.55330726719253    0.82427350926400    4.57679724557105
H         4.69397003164899    1.03090608689708    5.63381137152699
H         5.13346266541533    1.54432852121275    4.00234287376231
H         4.94521020829185   -0.17040586305846    4.35975392555427
C         3.46151997130783    0.71891231764902    1.62874093329516
H         3.71335529511819   -0.33298325494956    1.48557994744719
H         4.38850082324033    1.27847285201740    1.73007823709530
H         2.93884739682657    1.07005943924893    0.74142232118503
C         0.30343162164859    0.39070369624472    1.73724348906906
H         0.65038294839976    0.89430120591685    0.83685303686597
H        -0.72948411373021    0.67873364856354    1.91742619087359
H         0.33120503272550   -0.68458793021187    1.55410249587148
Cl        3.52000236050849    4.19237831245322    3.93183161806739
N        -0.12576951403280    4.87368216012578    6.60232411507143
N         0.41564929150731    3.76560140601649    6.15608537225508
N         0.76525715297063    3.96122452005035    4.93123033168457
Rh        1.80502370385062    2.62587927292646    3.77344885081621
Se        1.30101084561024    4.20159319938143    2.01746507447449

