96
CSD_code = ROHGOM | q = 0 | S = 0 | Stoichiometry = C37H50N4P4W | MND = 6
W         3.15569578640295    2.41126721074375   12.45166360416198
P         4.97578328317752    0.85964967164944   12.84005136367739
P         4.65903519050486    4.12276092537363   13.25144604607378
P         1.61450601154263    0.84168274964815   11.45772928250562
P         1.26488583652718    3.87374087522432   12.08504190274408
N         3.72204192933353    2.64359993635774   10.67013045905120
N         4.10006621543399    2.78151051611748    9.61764013806039
N         2.68871706521759    2.19374678051357   14.26457992441027
N         2.47105963220443    2.09182724867785   15.36570041382033
C         4.63833712613569   -0.94224007214241   13.07039235054131
H         4.28895957671188   -1.31821169428067   12.10491013965835
H         5.57608668483076   -1.44992806453354   13.32246952753043
C         3.57275103883808   -1.20311509452028   14.12208205220646
H         2.67218944990652   -0.64546250195032   13.86768576653304
H         3.90226926875270   -0.89034591404960   15.11038374515933
H         3.32175361999954   -2.26223666620804   14.16427585146651
C         6.38787246634719    0.73801690600203   11.64956027306077
H         6.71652300952794    1.76080940804536   11.44234218708587
H         7.21201737348790    0.20729184529158   12.14009753546267
C         6.02861501348411    0.06168272260942   10.33282201851592
H         6.85851374864277    0.14453049619637    9.63239851823120
H         5.15792117051549    0.53346308770538    9.88428018576478
H         5.80907103973220   -0.99408060257886   10.47341521977484
C         5.91670380171637    1.15615829204801   14.40411135040994
H         5.19693138069439    1.09206244367889   15.22630904893326
H         6.64019342253238    0.34048901242110   14.51988998616283
C         6.64032588198441    2.49827568310178   14.46832443553003
H         7.20615163103057    2.65212764563911   13.54631194657359
H         7.36148461497611    2.46104520202438   15.29284993726897
C         5.69613704159435    3.67280573755470   14.70996878434266
H         6.26056721332962    4.55793134123037   15.02130612657243
H         4.99863737342781    3.41346454603702   15.51261725169017
C         5.90042073256408    4.79136462464349   12.04686259784744
H         6.22404861501662    3.95232295174269   11.42348736902289
H         5.33325851745994    5.46642961060182   11.39807766298556
C         7.11313552213416    5.53065031731504   12.59946504614581
H         7.68358922774819    5.95597759130049   11.77470703845676
H         7.77078868255383    4.86539881533901   13.15315644300175
H         6.81773904143072    6.34682827984693   13.25537879460359
C         3.94161039846307    5.71382613475660   13.87001394460673
H         4.71700635421886    6.48548631842716   13.90624424338807
H         3.20394742270266    6.00788533400395   13.11427761461543
C         3.26280978405499    5.58597492574307   15.22704582649141
H         2.60820414153161    4.71647996930209   15.24838932267334
H         2.65645510557721    6.46670211200839   15.43180613797565
H         3.99549699307771    5.48692684258630   16.02445098028189
C         2.19014163895255   -0.42956762144530   10.28381604545951
C         2.29635263835899   -1.75678830314065   10.69725197244789
H         1.94861461557291   -2.03617529987158   11.68308408985664
C         2.82249868694675   -2.71634534873799    9.85311291032819
H         2.89202466421810   -3.74322078548407   10.18371653761326
C         3.26177524336492   -2.36300146449666    8.58733037600162
H         3.67390620374279   -3.11279306303966    7.92792188705870
C         3.17190395475970   -1.04524369301587    8.17255820418474
H         3.51785725378020   -0.76338759749936    7.18866038224527
C         2.64424618740124   -0.08241189292377    9.01449365640032
H         2.59366511568129    0.94343323128592    8.67998835973524
C         0.28637071314427   -0.09082881100660   12.30716446551392
C         0.11244291250059    0.03138800702889   13.67948352814476
H         0.80002599772438    0.63535782718686   14.25337660866354
C        -0.92909897204870   -0.61999834337024   14.31841543610330
H        -1.05242824523564   -0.51527855345037   15.38657351948206
C        -1.80604831395406   -1.40300679745481   13.58889274063189
H        -2.61916052383852   -1.91309908661620   14.08444659378583
C        -1.63686207599788   -1.53566508471900   12.21905577038215
H        -2.31765937434585   -2.15070344579181   11.64781119761739
C        -0.59973714220121   -0.88364117936250   11.58067525095353
H        -0.46522293414186   -1.00027928382739   10.51336122210249
C         0.51707517478372    1.87289967396379   10.37174975541857
H         1.14057683490173    2.36887542371612    9.61970478168335
H        -0.23465380731322    1.25859018980316    9.86594122395920
C        -0.11878213078727    2.91793356232235   11.27359723662922
H        -0.71163841109030    2.42555375243843   12.05206471633850
H        -0.77177185670620    3.58770657392701   10.70695779074607
C         1.31608623203739    5.29464702533893   10.93230437205503
C         0.17238022968267    6.03224869880799   10.62982101617196
H        -0.76792561143408    5.79247786158018   11.10901508002536
C         0.23885194220990    7.08374978729586    9.73640161586684
H        -0.65159415176299    7.65284911305270    9.50951766909577
C         1.44305040994416    7.41167304169888    9.13164380807823
H         1.48857637019963    8.23237438979723    8.43066452783800
C         2.58375156688635    6.68810074046830    9.43092920112723
H         3.52466560742635    6.93923770411328    8.96295750418769
C         2.51747978962498    5.63743935281350   10.32966283757829
H         3.40134509152290    5.06559792546860   10.57193708182293
C         0.36755904828202    4.60521488591863   13.49406526288863
C        -0.22001684583686    3.73697785452648   14.41111532354049
H        -0.19037448463294    2.67150896278884   14.23157264455216
C        -0.83511717719257    4.22325158398923   15.54833003269371
H        -1.28625799699984    3.53739096999414   16.25056273473406
C        -0.86800948384193    5.58688593257179   15.78969383095170
H        -1.34930140484164    5.96955148920560   16.67776254487785
C        -0.27479969030443    6.45727182321285   14.89122178520070
H        -0.29281130839483    7.52197451885176   15.07762410543330
C         0.34827968657741    5.97186361380852   13.75571450972261
H         0.81715369559545    6.66243663703493   13.06832585698277

