98
CSD_code = ROHKAB | q = 0 | S = 0 | Stoichiometry = C33H48F12MoN2O2 | MND = 5
Mo       10.15963916046788   -2.17259530334832   20.29664095445218
N        11.00637456765540   -0.81971755290566   19.58547738291279
N        11.27472308747035   -1.76362554224930   22.25178509390094
O         8.65828824811307   -2.29162503806610   18.86516317889823
O         8.72786750849261   -2.52408181880891   21.53412177192359
F         8.17349016209781   -0.04806802599797   17.21692814104066
F         6.47009935996310   -1.27093412074853   17.65118368211605
F         7.37155261643557   -1.33337185313840   15.70088957274343
F         8.79469337393261   -4.73580266883873   17.57405876468748
F         7.89193278739035   -3.93708540516348   15.80350519015500
F         6.79635767426528   -3.94606560544212   17.65196922557138
F         8.02408860342645   -3.39915854720877   24.08347764735278
F         5.93600513341944   -3.31877338942461   23.58071129369343
F         7.13394935501151   -1.53426404410429   23.53534302443450
F         7.91118279371114   -4.77769795743809   20.18635862564312
F         8.59694071590109   -5.12646267899303   22.18215900076309
F         6.49495079560298   -5.26091996635822   21.73500275856606
C        11.18548035685429   -3.79042540726437   19.96327186549182
H        10.53189406321780   -4.55645106865408   20.41340075984803
C         8.61035718885436   -2.36990230835665   17.51398618117315
C        12.36178659680702   -4.51199046838219   19.37861591351759
C         7.49814240835846   -3.05307617714138   21.74941375175598
C        11.16670329686006    0.49157951860392   19.30424100798527
C         9.94815835874325   -2.19663841564518   16.78343607434240
H        10.61615328699291   -2.99543252463239   17.09826120906441
H        10.38028016057157   -1.24073850079976   17.07727618601062
H         9.80079747681245   -2.22803582247974   15.70556930486657
C        10.10306967613304    1.39144768100889   19.56935223704557
C         7.64444292614933   -1.26147843860238   17.01141475047362
C        10.26016172157595    2.73621136365513   19.28353137589892
H         9.43498575629400    3.40511050452918   19.48772455514403
C         8.00974369896239   -3.74987602125032   17.12848846331656
C        11.42881321272672    3.24831393940293   18.73915949265126
C        12.46829429400126    2.36392443518467   18.48525460064795
H        13.38684226731280    2.73685097970687   18.05867663863443
C        12.36331840999090    1.01405541332907   18.75910016836041
C        13.33370156123060   -3.57707306110034   18.65623860002819
H        12.79929865636558   -2.95695005991514   17.94242155687688
H        14.08539246973102   -4.15616621287902   18.12346088393318
H        13.84494288138178   -2.93149712620778   19.36598968538798
C        10.59598783828832   -0.63157080375673   22.90555950124575
H         9.59016204834544   -0.95659935525829   23.18395809641520
H        10.51247475565711    0.17613644861262   22.17298918619279
C         6.37076473532343   -2.44798390992499   20.90252876230355
H         6.23594303787777   -1.40224748084492   21.17354382271587
H         5.44228416763782   -2.99128445245070   21.06181295182861
H         6.65502071078876   -2.50529813286921   19.85323727373845
C        11.36716854663293   -0.14490607613621   24.14600967112462
H        11.85978959507533    0.80808416121497   23.94704789528681
H        10.68414815491412    0.00228860965389   24.98297372067328
C        11.85952822415540   -5.57256377261565   18.38272577813869
H        11.15637472451486   -6.24901700846528   18.86134471751983
H        12.69519554506119   -6.15451525162926   17.99852806924267
H        11.35165807502263   -5.10254467043035   17.54604356247631
C         7.13621542112363   -2.84508718588163   23.24322295371545
C        13.12189760982730   -5.24513703926918   20.50124222827074
H        12.46081105698854   -5.92552464243860   21.03350885004976
H        13.54000528474235   -4.53565728177932   21.21360271467281
H        13.94166113246809   -5.82354416847884   20.07991471321875
C        12.41333075681904   -1.20006401856811   24.49601856786252
H        12.89658108486433   -0.96126340284561   25.44632519873826
C         7.60326439062592   -4.56588362710972   21.46630583571776
C        11.71654991688002   -2.55625551587019   24.57149306696519
H        10.86655376836285   -2.49686953385537   25.25226344464665
H        12.39734799058845   -3.31494053979110   24.95818655040880
C        11.25503995621812   -2.92987123937246   23.15279954143531
H        11.91202931245880   -3.68648388166533   22.71700139433168
H        10.24493938400321   -3.34198623580153   23.18140345996259
C        13.44053372582334   -1.25060670098690   23.36688090436265
H        14.10746019654417   -2.10020263760550   23.51987621171259
H        14.05072373606125   -0.34705534889507   23.36847949341230
C        12.68034287948314   -1.37865210536745   22.03480759085713
H        12.68055508622535   -0.43023604630941   21.49321937933788
H        13.13907486835886   -2.13034051768656   21.39018422394425
C         8.79303168841060    0.92897566833574   20.13989143116005
H         7.98260674071205    1.21608782615303   19.47189031936478
H         8.60761622474691    1.39779266110272   21.10799168723382
H         8.77243822175046   -0.16308843761208   20.25546327555528
C        11.55327112422855    4.71838745801913   18.42617176218088
H        10.61951678666207    5.20934982310574   18.72177241244232
C        12.69694753359970    5.35488222612299   19.21902438287040
H        12.73655245078187    6.42526982873633   19.02915222918443
H        13.65258580128323    4.92146812323147   18.93518042596008
H        12.55214248086833    5.19745825983669   20.28569630047854
C        11.74945796759872    4.93491993185783   16.92416844056613
H        11.77068396357016    5.99827362973710   16.69549017042629
H        10.93543659890648    4.47569189561721   16.36823362736887
H        12.68453523645153    4.49300769790998   16.58938856433896
C        13.51176418356024    0.07917430138151   18.47220625789059
H        13.22217417780067   -0.90149085149958   18.85881117919753
C        14.79652641007111    0.52122362908951   19.17587266343918
H        14.62658054316784    0.65232926448155   20.24249592000557
H        15.16173965447788    1.46128609389000   18.77041408888857
H        15.57175699155565   -0.22955021215429   19.03984154404139
C        13.74157901370612   -0.04332930092791   16.96432855987655
H        12.83190385688130   -0.37545327230103   16.47001064697832
H        14.52955048302777   -0.76524058069802   16.76212296904952
H        14.03268747911205    0.91404499709121   16.53868123761497

