29
CSD_code = ROHLOS | q = -1 | S = 0 | Stoichiometry = C12H8AuO4S4(1-) | MND = 4
Au        1.85586514730079    3.40349330003791    8.89747683161640
S         1.64040467170683    2.21577992699755    6.90918159293424
S         4.03369098133000    2.63802325555400    9.10905369952351
S        -0.32699384905843    4.15735975638982    8.69638498248347
S         2.07957824352656    4.59758704268324   10.87917087673201
O         4.85507274397795   -0.80722646237898    4.37173216441027
H         5.75796763456264   -1.14318534134650    4.44984960006511
O         6.85941492181137   -0.48090530488127    6.19142517923565
H         7.44901170327982   -0.26127423488111    6.91998331189222
O        -3.18126308074059    7.18603033572379   11.68144153348076
H        -3.77708981674327    6.95662868332101   10.96103541518214
O        -1.15909557299700    7.54240869071372   13.47568945114307
H        -2.06972228280478    7.86007020964646   13.41248245836260
C         3.21004075070147    1.44530216227103    6.74931289088859
C         3.42980695588974    0.63035955863170    5.64278962090887
H         2.64309812590011    0.49462507111867    4.91932241617624
C         4.64274954240300   -0.00562898740963    5.46202473859214
C         5.65697142215358    0.17680048515164    6.40785532786988
C         5.44348044082059    0.98459363788437    7.50450052172562
H         6.21968181227051    1.13368547757256    8.24177059562508
C         4.22195120776428    1.62560702044698    7.68581689739822
C        -0.51952858102860    5.14980362267330   10.13323819407062
C        -1.75145487075882    5.76414512388499   10.33573805389936
H        -2.53390429494298    5.60562634026715    9.60707836215582
C        -1.96767326240947    6.55717393531757   11.44264314966035
C        -0.94505048177775    6.75346167076105   12.37655621242780
C         0.27762976746268    6.14276427103673   12.17572825711938
H         1.07052073948348    6.28797974743387   12.89056496616226
C         0.49913928091630    5.34051100537875   11.06035269826014

