50
CSD_code = ROHLUV | q = 0 | S = 0 | Stoichiometry = C25H23ClZr | MND = 12
Zr        6.64655931121125    0.51231828154973    9.11928562086231
Cl        4.70347298529560   -0.71376687991106    8.61593232350529
C         6.35515451374544   -3.28123642387737    9.39305763849411
H         5.79205591451802   -3.25976701277402    8.46972166990708
C         6.04718467760122   -4.19980646934829   10.37844582352216
H         5.23048068853339   -4.89022652296116   10.22588238531699
C         6.77705311428220   -4.26170117457296   11.56382589904348
H         6.50709046166490   -4.98861817231972   12.31589471817423
C         7.85456043017318   -3.42330366419474   11.77369527639951
H         8.43889710726853   -3.49262725944653   12.67992646229466
C        10.32191270875691   -1.28366857556174   11.55652983239549
H        10.39369938490480   -1.79060038939597   12.50751093075538
C        11.28018354249536   -0.36214718426100   11.17731620112335
H        12.10482989263703   -0.13860885701294   11.83778961109520
C        11.20776964016532    0.26413378750328    9.93580531878669
H        11.98851011266278    0.95280648725684    9.64603856380790
C        10.16526015790706    0.01082194458791    9.06183852185899
H        10.16457173423469    0.47752647876619    8.08485404716246
C         7.93716460577744   -1.32126539376934    8.75528083835973
H         7.95985423675868   -1.51669404179792    7.67480405720788
C         7.40796058794669   -2.39173810756304    9.60537362896754
C         8.18160724768240   -2.49626520282664   10.79122504628196
C         9.27117360664322   -1.55717232962262   10.69132930435445
C         9.16147509479108   -0.88676040317485    9.43807649286487
C         6.54899094571438    0.10253417897917   11.54805351330392
H         6.64666391118877   -0.86933013894760   12.01556287632866
C         7.59590781375785    1.04273065663265   11.34073455935192
H         8.63195668499135    0.91549200173255   11.62700826158119
C         7.00918765634355    2.25141828390785   10.91843663388700
H         7.53152899543298    3.19311715416121   10.80440650806869
C         5.60796232686870    2.06001057993765   10.84366197244810
H         4.86782388477632    2.83028751068258   10.65636580655383
C         5.31952036671004    0.74037100827808   11.25901710367889
C         6.35354505395463    1.00341723102104    6.66563839271271
H         5.90578643922545    0.29647551674502    5.97716978067497
C         7.73368626128103    1.13912041302961    6.93546288105169
H         8.52315266659444    0.59947588596559    6.42664171328172
C         7.90382912435213    2.24501346362950    7.80102611213385
H         8.84828485033184    2.68915596449454    8.09110949407620
C         6.62614503340215    2.80400839285240    8.03655824472830
H         6.42991875772918    3.74722683463820    8.53093849106671
C         5.66402064393078    2.03010110010296    7.35324544194911
C         3.95537472761475    0.16939220038250   11.51777406927817
H         3.62958880039651    0.43290682108611   12.52691656583617
H         3.22301813707167    0.55954681385726   10.81136760678980
H         3.97143236556292   -0.91716816350023   11.43850468528361
C         4.19105684143020    2.31633733090261    7.27768737302569
H         3.94417762274360    2.77957882831253    6.32021104226420
H         3.61291779402268    1.39527649520825    7.36276865923610
H         3.88814053689595    3.00057072059157    8.07069199879853

