49
CSD_code = ROHNAE | q = 0 | S = 0 | Stoichiometry = C24H19BrN2NiO2 | MND = 4
Br        6.58145672489024   -0.00335611218803   11.16246591028785
Ni        6.58248316133046   -0.00184155601983    8.95326768763804
O         8.25945066135184   -3.17250687513135    7.14708054562073
N         7.45054729626009   -1.71803425213053    8.63550877239179
C         6.58350504025548   -0.00102864946443    7.11272875026610
C         7.11321826250055   -1.08963288458888    6.41752540927352
C         7.11403653053929   -1.09380486609170    5.02665912273221
H         7.52321155427791   -1.93221280072581    4.48249836881524
C         6.58346409401422   -0.00050263422589    4.35328430270436
H         6.58347769542204   -0.00027808942354    3.27331990488128
C         7.61619278665187   -2.03627099717019    7.39089973023656
C         8.59614305772680   -3.74056511602664    8.41523903927651
H         9.67565805415149   -3.90889538438473    8.44300919725493
H         8.07529786563177   -4.69716844739730    8.51090070852703
C         8.13374880197204   -2.69076569319299    9.46413825124706
H         7.43352262376977   -3.11728136877420   10.19163200823682
C         9.30339208476789   -2.08647882380488   10.21486678846141
C         9.96447374369122   -2.86384734867990   11.15696967791079
H         9.62401563403563   -3.87095765517778   11.35148321210425
C        11.04368925150585   -2.34998435529625   11.85129861467987
H        11.54810129969536   -2.95929984683367   12.58648069840027
C        11.46830054192865   -1.05342976683126   11.61409678167740
H        12.30432676479019   -0.64835416216589   12.16444537634682
C        10.81152428903348   -0.27483663439843   10.67830288104714
H        11.13133594652138    0.74031637906002   10.49626951758676
C         9.73696972472026   -0.79075582153931    9.97600243526964
H         9.21834002510473   -0.16170101387718    9.25421188918783
O         4.90961836859914    3.17158221730777    7.14814793767714
N         5.71629603044012    1.71545892571430    8.63621097753598
C         6.05386009072042    1.08787267853255    6.41796923722827
C         6.05295745804838    1.09255599416727    5.02709997412297
H         5.64384205658075    1.93121404782506    4.48328111699803
C         5.55137843992128    2.03443465761868    7.39167217397759
C         4.57377545412587    3.73981893094721    8.41643710610584
H         3.49452798980738    3.90987711253751    8.44424464228114
H         5.09614683611186    4.69555934510470    8.51238121903197
C         5.03447018066100    2.68899459655184    9.46505725139083
H         5.73528522852184    3.11420558233607   10.19275990653445
C         3.86364519176342    2.08653866530736   10.21536253745303
C         3.20528239623442    2.86397599821304   11.15931592439210
H         3.54869245469184    3.86973457304178   11.35558055115325
C         2.12501453265023    2.35181863229070   11.85326870359683
H         1.62264171569788    2.96118113483315   12.58979683012720
C         1.69658794802225    1.05693865619539   11.61377385404918
H         0.85960824442207    0.65323976461960   12.16366927061804
C         2.35067674940632    0.27827173721784   10.67615755563744
H         2.02794698641070   -0.73563773376129   10.49241085661968
C         3.42631852336498    0.79250978432562    9.97427899625572
H         3.94304360725999    0.16332947555137    9.25133779515546

