61
CSD_code = ROHNEI | q = 0 | S = 0 | Stoichiometry = C28H27BrN2NiO2 | MND = 4
Ni        0.66606719354566    2.52566207896395   22.73983274208417
Br       -0.29774711270167    0.59805984561999   23.18547777300158
O         4.00388470068336    3.42299394481199   24.79195791066282
O        -1.15919433510804    4.87167975319700   20.03011955646683
N         2.18291050162549    2.42554480087734   23.96544773641372
N        -0.58425549988274    3.20450695441187   21.39902607517651
C         2.95537206962168    3.46557553624531   23.97508946949111
C         3.97549372854715    2.14543655672507   25.43473618308269
H         4.02098686070595    2.29892491379428   26.51528117099330
H         4.85299896716527    1.57918568064957   25.10970011226786
C         2.64308829282222    1.49376822474835   24.98392123404442
H         2.78983686248726    0.50155761909372   24.54604644736891
C         1.62299089932198    1.41084012650087   26.09794309005871
C         1.24028470297320    2.56786995764150   26.76564038921590
H         1.67022515341746    3.52242307455641   26.49052392130541
C         0.29878562412376    2.50945909859181   27.77673412107964
H         0.00379008262078    3.41463702413677   28.28759466316244
C        -0.26832010800916    1.29560660168226   28.12495723569024
H        -1.00839355781496    1.25204892014645   28.91032855522736
C         0.10511583780952    0.14256805125734   27.45639855783746
H        -0.34607538616494   -0.80315767301744   27.71360697137754
C         1.04682388208337    0.19808716890151   26.44469209795468
H         1.31508076148771   -0.69707684780646   25.90587311636744
C         2.57202227741274    4.55468763387021   23.10163493158496
C         1.41747596067835    4.17025466410004   22.42085119912212
C         0.81408867013763    5.06099146483793   21.53613042669847
C         1.36043391280008    6.32366162146249   21.32426627362621
H         0.86815731142731    6.98743818843367   20.63261470943562
C         2.51813812740095    6.70508553136536   22.00024725262637
C         3.12059292612167    5.81225087089823   22.89167801776878
H         4.01332579618421    6.08801943829225   23.43238899909010
C         3.14999822362134    8.07792592444423   21.81215506767449
C         3.13423639789632    8.81765107222775   23.15755383867699
H         2.11251821165000    8.92236608935317   23.51733058802713
H         3.56245220949655    9.81084843025440   23.04274429531545
H         3.70782098362587    8.28587327315044   23.91187233120051
C         2.40487164497655    8.93611027404260   20.78646166042212
H         2.39887999303626    8.46147525849551   19.80785550683851
H         2.90612406736212    9.89667364002448   20.68952259906446
H         1.38069192454081    9.12477707783918   21.09997565334151
C         4.59658863555242    7.90571306819325   21.32782064521711
H         4.61654951758392    7.35626509659489   20.38893663842375
H         5.19982038252753    7.36534935968131   22.05177109985949
H         5.05352891238735    8.87941649992311   21.16689245574009
C        -0.34220167365559    4.40210517907645   20.96693625835981
C        -2.12950146910078    3.85308797154465   19.77533929013907
H        -2.13179882739821    3.63865657277772   18.70413408708725
H        -3.11044249722194    4.23326277221094   20.07437151981690
C        -1.66957710284516    2.63619649177939   20.62494393122402
H        -2.46087446657618    2.27903196576140   21.29435024693072
C        -1.21027131967039    1.48057838912636   19.75740232043369
C        -2.14710833365354    0.82763199627781   18.96622433900559
H        -3.18223324523938    1.13698216577140   19.00060421462361
C        -1.76211463440479   -0.21700088115404   18.14692420174004
H        -2.49821057135420   -0.71963717637408   17.53727757835872
C        -0.43835302548892   -0.62247046326627   18.11416641828101
H        -0.13831892235139   -1.44140711151398   17.47781591392300
C         0.49666436194337    0.01953927383832   18.90593606799769
H         1.52833780824550   -0.29872073542623   18.89328032811393
C         0.11378074167628    1.07016712865789   19.72076920249402
H         0.85735696931677    1.55736057169655   20.35109076139112

