63
CSD_code = ROHNOS | q = 0 | S = 0 | Stoichiometry = C22H37Cl2PRu | MND = 9
Ru        4.09013081934114    4.23761384185647    5.56304868427890
Cl        2.27244743535597    4.11296043638532    7.05426722083322
Cl        5.38778501044829    3.07708477600787    7.14410515573599
P         3.86251047832568    2.11694801779004    4.66618857397772
C         5.91902877781671    5.65498786571735    5.13342021884365
C         5.06194839580733    6.25540385638843    6.09955968525797
H         5.48216489679696    6.59675566366893    7.03936038639585
C         3.71886425093043    6.48002781393943    5.81068431400565
H         3.09576388615873    6.99743116646225    6.53357922007491
C         3.13954463922671    6.07560077065305    4.57457696156630
C         3.98150687790630    5.44386451651581    3.64057469588593
H         3.60744502699587    5.19287289044457    2.65445384873883
C         5.37017406551459    5.28099180466911    3.90286002178821
H         6.01717309846045    4.90937920291654    3.11686881879031
C         7.37495693449170    5.49085945560564    5.44063209681827
H         7.79467560969078    6.43094151701981    5.79674346657341
H         7.93036043412550    5.16169363857875    4.56540171656827
H         7.49684652491454    4.74905906676133    6.23318349570736
C         1.71054949208361    6.47459461924980    4.28857708389406
H         1.13481247940895    6.31468583809947    5.20807834929354
C         1.68435815405343    7.96938630348374    3.94455732666139
H         2.09612586983881    8.56661478751376    4.75515566659953
H         0.66153415187263    8.29156017572820    3.76584214355658
H         2.26875825720079    8.16040981418413    3.04549554845601
C         1.05337188044985    5.66572055816469    3.17385479368854
H         1.49987725507024    5.88864038034771    2.20625252178629
H        -0.00350483591878    5.91499618897734    3.12001998772565
H         1.14256544533518    4.60128569246825    3.37520404335769
C         2.35431277696918    1.79896971514055    3.65204462471636
H         2.29095313721156    2.59669914258734    2.89730092998326
C         1.15662694122678    1.96250571430097    4.59551000779647
H         1.23642716725260    2.95369371898756    5.05388934867492
H         0.22991482546760    1.92891648863042    4.01520271360085
C         1.06579958817156    0.94544473361960    5.73193976880276
H         0.71831644636778   -0.01577847564701    5.35664738516356
H         0.30517271922361    1.30367169547654    6.42918562266835
C         2.36592322945161    0.78243684372891    6.51896211003080
H         2.51025427789547    1.67662613343590    7.13083596378995
H         2.26210331372119   -0.06834747607663    7.19734830560073
C         3.64430773312875    0.59832880854088    5.69246124314835
H         4.47284469842450    0.55573043175073    6.40852267056862
C         2.42008738636781    0.47048125968624    2.89024469232736
H         1.47796273067264    0.35061417142439    2.34637214667417
H         3.20724725437836    0.54953882922504    2.13668297347867
C         2.64648852043742   -0.79045195701848    3.72868777078328
H         2.95884030629529   -1.59168860723223    3.05186060140035
H         1.70103365462370   -1.11027484372426    4.16093281294732
C         3.69445823294894   -0.67278609391073    4.83829700113542
H         4.69356330847283   -0.76039388126884    4.40834562927260
H         3.56923334863752   -1.52669615677408    5.51014295245031
C         5.23588822133469    1.80341722257831    3.46680973889142
H         5.16492148898274    0.79069582884453    3.06987179083019
H         5.02820299573209    2.49996241191781    2.64432035219349
C         6.65025696017253    2.04906397998649    4.00042620056456
H         6.63636795342106    2.94919343196267    4.62298828382080
C         7.12940457600204    0.89932089376640    4.87813064418022
H         7.08556759071753   -0.04739044479633    4.34262169801016
H         6.52057084410944    0.84068535186778    5.77470946017384
H         8.15857295898696    1.07053280686793    5.18453006609208
C         7.61478700410045    2.25270238394499    2.83216000626953
H         8.61742085384900    2.45837566837068    3.19989257172714
H         7.30684198010314    3.08274840422724    2.19818299877539
H         7.65634966343895    1.35618120598045    2.21609286659925

