38
CSD_code = ROHSEO | q = 1 | S = 0 | Stoichiometry = C8H23N4NiO2(1+) | MND = 6
Ni        3.82129828117822    3.65154539369251    3.42140331516789
N         6.00476204781565    3.32090491778371    2.46170691790134
H         6.01525015890557    3.59493352069469    1.48056303576339
H         6.52999531261658    4.03874121901608    2.96352518001970
O         4.43237022839343    5.19326655064872    4.32938643003025
O         3.49665746568486    5.21931365063651    2.40519596407506
N         1.61891816499111    3.78220993268263    4.38533476313765
H         1.66360273217663    4.12378513180518    5.34403491031537
H         1.22435882124428    4.54245006583103    3.82937043130131
N         4.41172745924610    2.33651788021674    4.79672686033237
H         4.88660673729240    2.95922699733945    5.45581955674087
H         3.56038347858844    2.01644297206595    5.25844688564127
N         3.00144434150394    2.37349429132916    2.13943832979206
H         2.63724519957038    3.02265658270903    1.43673762042147
H         3.78083344521197    1.87919459530151    1.70493218544221
C         0.64543988312647    2.06950617351451    2.90144267019637
H         0.39148909202604    2.86687907638696    2.20012954079636
H        -0.15161539357725    1.32689589904527    2.86314167880065
C         6.67429133478247    1.57606997398200    4.07135363221174
H         7.06637425369304    2.36613535339528    4.71496884370590
H         7.33133050990656    0.71169824249072    4.16828563566788
C         1.94350122183296    1.40061030475000    2.45412761560733
H         2.30237768360045    0.72811267180591    3.23683182423906
H         1.72773095995926    0.79567319464902    1.56421663732936
C         0.69739161984457    2.64286210882379    4.31656188956450
H        -0.32073631973027    2.92716880039369    4.61418056857541
H         1.04241382647500    1.87213458225811    5.01124340105966
C         5.28297236864040    1.17526576797187    4.55738266372665
H         4.80783450630566    0.52163007260922    3.82196764470657
H         5.39662375900829    0.60631072218923    5.48901539501229
C         6.71376543446805    2.04606961747654    2.61825972493918
H         7.76390174426268    2.12623149659152    2.30699874587753
H         6.23498156269616    1.29912684643718    1.97897063532639
C         4.03414838872095    5.87317498009413    3.34245448469156
C         4.18326364098089    7.35708566945892    3.29139483505371
H         3.22343292456633    7.81843565089898    3.51976999695529
H         4.47122828651129    7.66848066286938    2.29056441225947
H         4.91440483748144    7.68595843015544    4.02401513761292

