41
CSD_code = ROHTAL | q = 0 | S = 0 | Stoichiometry = C16H15ClFN2O5V | MND = 6
V         1.78650559280726    2.53093804205799    4.23891649043311
Cl       -2.73859659591934    2.30843356154973    1.67858334774739
F         2.98537432578347   -4.07311890362311    4.88083595082759
N         0.87788378167699    1.20044484401765    3.01129232572230
N         0.14481873139997    1.74088084028841    2.02588922562433
O         1.83458408510711    1.21226760175579    5.33603824010929
O         0.77246906465538    3.65055457129864    3.05562835503837
O         3.07289815283351    2.43467584089374    3.42236073652331
O         1.79874906816665    3.77897175381355    5.27311623946130
O        -0.95620379756968    2.28201892018857    4.87874170522522
C         1.77536585147988   -0.75687950607493    4.04060466808121
C         2.12545594907832   -0.04635890106246    5.22389146703037
C         2.75821586336957   -0.74463987977259    6.26792325948025
H         3.01886717675816   -0.19780579744129    7.16209197090841
C         3.05139425704780   -2.08441097722690    6.14989945719534
H         3.54595646210389   -2.62067074962142    6.94446761275944
C         2.69981815891330   -2.75684151952746    4.98421168894366
C         2.06574865422720   -2.12301036474422    3.94237064927447
H         1.80411636396055   -2.67444449394145    3.05246413688132
C         1.07875074016188   -0.07234092902141    2.99661495944513
H         0.68218289309115   -0.65006737372951    2.15979080028271
C         0.16043410547049    3.04420997347050    2.12203307366749
C        -0.58611053487166    3.83458637358025    1.11329650667708
C        -1.92058716612486    3.56065044991473    0.82492696806430
C        -2.61391315557591    4.30898142609204   -0.11167923470965
H        -3.64810574094553    4.08220743841971   -0.31851851375616
C        -1.96931066646373    5.34449890786667   -0.76642179469250
H        -2.50719552524170    5.92486894493556   -1.50038565717261
C        -0.64754221452438    5.64198044158417   -0.47492899888343
H        -0.15229519346086    6.45712581128595   -0.97956089064772
C         0.03818295783700    4.89481259636208    0.46512769769914
H         1.06860355774983    5.10875904480264    0.70756064528359
C        -1.47950908148539    3.44340303640348    5.48938258127284
H        -0.86462781130430    3.63849515321951    6.36685473921209
H        -2.51720396203872    3.28581382212469    5.80355946371279
H        -1.43200092860965    4.30596786800974    4.81489126398674
C         2.08240263532892    5.04643142603060    5.67565164374088
H         3.17107869147194    5.21123249283038    5.69101543546094
H         1.66840352721079    5.24398735397606    6.67604953430024
H         1.62795078512223    5.75319102897259    4.95999193866739
H        -1.52060905868001    2.06209983004261    4.12412031112364

