75
CSD_code = ROHXIV | q = 0 | S = 0 | Stoichiometry = C24H34N6O4RuS6 | MND = 6
Ru       -0.51750550889023    2.34951903960357   10.32396248814086
S         0.74667587862274    5.28594392104934   10.96356629243692
S         0.98482126988668   -0.01897890671922    8.68422455770468
S        -1.81628766824490    3.11144530146137    8.45971476880206
S        -2.41089392985501    3.65099243878526   11.22678782852007
S        -2.03613677461362    0.40029867320858   10.54134422202344
S        -0.14882542205358    1.36853382647094   12.49103146464702
O        -0.07975660138198    5.27272039645828   12.13067450680681
O         2.04732742092559    5.86694078106715   11.04908903925823
O         2.09944235434316   -0.14242928582291    7.80112130980940
O        -0.32397415273069   -0.31494380595252    8.18838289893704
N         0.86200595993477    3.67495833468544   10.40941367119482
N         1.99185419275908    3.38213390331464    9.82350084533217
N         2.02371931288740    2.24356165518698    9.24982131105658
N         0.91713671063444    1.55711499000048    9.32710124742720
N        -4.12846843197924    4.18962202396295    9.25993884474160
N        -1.98843028877406   -0.48740730970938   13.05423327975935
C        -0.15655932027594    5.94025542401449    9.56761756341127
C        -1.37496724036623    6.55794881754633    9.75662944292628
C        -2.09322069714004    6.98096294037828    8.65070764663239
C        -1.60328736840468    6.77573367332981    7.36619773815343
C        -0.36425814460052    6.16008242757931    7.20380096849390
C         0.36490521452664    5.74329024748409    8.30177280445148
C        -2.38172576295396    7.21198967921088    6.16363593722637
C         1.28323691913578   -0.88895707066379   10.21600962798291
C         2.33256625061270   -0.46930702526428   11.01300624388455
C         2.52742564234762   -1.07561214742722   12.24008280250511
C         1.68740564477167   -2.10154362894283   12.66629363628824
C         0.65465215918572   -2.51912890800350   11.83490174752932
C         0.44273908430341   -1.90904148493805   10.60988366483485
C         1.91339679500245   -2.74677965891338   13.99865102263041
C        -2.93941774820316    3.71739199381444    9.61741510346393
C        -4.50840103504684    4.26333507926956    7.86399982559898
C        -5.10296777465956    2.94765712553624    7.36983307057548
C        -5.12429415399629    4.51750493310242   10.26004249299556
C        -5.08304663286818    5.98918992374470   10.65536139130210
C        -1.46536572120312    0.31673510835064   12.13529211769932
C        -1.41959898771381   -0.56461527518222   14.38429876733097
C        -1.98641582499241    0.51082752107296   15.30671570758458
C        -3.22227498668502   -1.20139265589327   12.79440783588845
C        -2.97673689506621   -2.60965332352721   12.26551742954428
H        -1.73841700876317    6.68713683440755   10.76401545304638
H        -3.04549051089221    7.47137015060870    8.78767364148258
H         0.02390764021268    5.99859569985789    6.20937140229593
H         1.32751163705496    5.26543582605351    8.19114644012063
H         2.97844342926705    0.32516395806863   10.66860874737619
H         3.33305439294517   -0.74623399056040   12.87892974317819
H         0.00978099729653   -3.32631364759011   12.14865172986323
H        -0.36314979502899   -2.19842744782062    9.95373110192917
H        -3.38098830362725    7.53864326764778    6.43910990989473
H        -1.87247863982754    8.03922531667828    5.67055659808473
H        -2.46009430732645    6.39825929457511    5.44506780323451
H         1.07916196414261   -3.38762064741966   14.27163379374591
H         2.81714746113379   -3.35457189765885   13.96781836684008
H         2.04970887568425   -1.99244218084917   14.77102450429144
H        -5.98945011641288    2.68384621116328    7.94161773736288
H        -5.37628908520987    3.03696049918440    6.32261015120367
H        -4.37170084911096    2.15081573479408    7.47232322377518
H        -4.11789391118664    6.22600269874774   11.09176037379643
H        -5.25094589039587    6.62745539088158    9.79123007505179
H        -5.85625567878540    6.19093191669043   11.39110274220121
H        -1.53778535838734    0.42487847064968   16.29195051670593
H        -1.76246344843350    1.49567926498492   14.90664412339361
H        -3.06476139471317    0.41010424667389   15.40347577261827
H        -3.92781660123929   -3.10794225721443   12.10097641858831
H        -2.44196759889414   -2.55967763803552   11.32235770554093
H        -2.39665699125704   -3.19398242830293   12.97569905877026
H        -5.23154109527468    5.07497586595309    7.75802777811247
H        -3.61609821741472    4.50476507824239    7.28214424743120
H        -6.10489948560288    4.26170015932448    9.85223506726909
H        -4.93163572384621    3.90147792199126   11.14174125947582
H        -1.63218272436822   -1.56036811137630   14.77961672425919
H        -0.33779426991300   -0.44141082879005   14.29743412007768
H        -3.78857684971494   -1.24051676964114   13.72777109171455
H        -3.79057627923991   -0.63231565467183   12.05465941170863

