41
CSD_code = ROHXAN | q = 0 | S = 0 | Stoichiometry = C12H20N2O2RuS4 | MND = 6
Ru        5.13743646252244    7.33568170415953    4.62011906725142
S         7.33429974930714    6.53335878308626    3.88916295169519
S         5.28743650926236    7.69088337212328    2.18445238138828
S         5.89386586041904    9.67103851469216    4.81700584838241
S         3.14463742718492    8.74242288668650    4.83374253385916
O         3.74798825546986    4.72088914485844    4.15261650239107
O         5.51951977047505    6.95789041768641    7.56914440012923
N         7.77364726983321    7.24539254001661    1.36131619890985
N         3.81142232682356   11.31833525100336    4.68318184337302
C         4.28687210113332    5.70701677820926    4.34895225487377
C         5.35996411027306    7.08711111875187    6.44708928045914
C         6.89982610653887    7.17110503092054    2.35942330257170
C         7.38663606074663    7.78311884429260    0.07250670818320
C         7.55084273979461    9.29957314465948    0.03153315629192
C         9.14393304901867    6.80751110825302    1.53424351863691
C         9.29829218375644    5.32182863879593    1.22414240213289
C         4.23728728154477   10.05977673148270    4.75589102794369
C         4.76693879013117   12.40426528871942    4.58590705513831
C         5.27905307962180   12.60982892845081    3.16288130475175
C         2.39184608395049   11.60405616011853    4.61623318359768
C         1.83259138386360   11.48092631707761    3.20163784755138
H         8.00790197273081    7.30901197139089   -0.68991118801840
H         6.34145414170073    7.52202021848680   -0.11304453179417
H         9.77369710284903    7.40470471803061    0.87133427751000
H         9.44040182788873    6.99813993099310    2.56897351424894
H         4.28296130946081   13.31243521272024    4.95016464710934
H         5.61180601503023   12.17024950190947    5.24080272884425
H         1.87572084288553   10.89412116128530    5.26933083284629
H         2.23343276554916   12.61364409890019    5.00101604700487
H         8.58277508542301    9.58187248137874    0.22741684698655
H         7.26259066419550    9.67688809396136   -0.94524887165539
H         6.91549415728702    9.75997166664838    0.78349829437512
H         8.68483869033558    4.73619545113935    1.90340140119948
H         8.99352769269841    5.10653448033943    0.20246887890431
H        10.33556791626237    5.02572843174965    1.34978007065529
H         6.04203220017590   13.38310938567126    3.15906977743156
H         5.71901084001925   11.68860633854412    2.79049748689865
H         4.47526125785959   12.90875333134180    2.49582968056695
H         2.26996068526366   12.22420091583862    2.54054687537650
H         2.03930951009521   10.49083689572113    2.80425392579094
H         0.75631872063431   11.62576500990599    3.22373653619765

