65
CSD_code = ROJFEC | q = 0 | S = 0 | Stoichiometry = C29H29ClIrNO4 | MND = 8
Ir        7.59847665355019    0.84403238108768    3.20200105028425
Cl        8.24655005849958    2.93830725680886    2.32764020942769
N         8.57951788740785   -0.22365781497934    1.65316045088163
C         9.41138711628450    0.75394102240952    4.07678194141964
C         9.96974109704920    2.05249127951930    4.53495203532083
O         9.51195858270171    2.67008640690542    5.46866907029003
O        10.99790151901765    2.46789375223912    3.79186247700992
C        11.48981834732876    3.76480518242891    4.09380363850418
H        12.40508482802122    3.88620477944620    3.51983497819195
H        11.68471580318857    3.85616348188500    5.16457776326373
H        10.75265259182794    4.51459492245974    3.79882579077520
C        10.04193931741380   -0.40561249661489    4.30369838585867
C        11.40969169104095   -0.45313942413486    4.89417998712734
O        11.65030866446811    0.57237483866676    5.72027296364272
O        12.21863405612453   -1.31819332940292    4.65738158038101
C        12.96635107171494    0.66878291640681    6.24223145111897
H        12.92213150782094    1.39848473556043    7.04714965666377
H        13.65557347041539    1.00088309427484    5.46277793529685
H        13.29797123924049   -0.30242907555836    6.61651716295679
C         9.45868892591635   -1.75150593199596    4.11029663381593
C         9.53757318108355   -2.54756876248740    5.24504653724903
H         9.92586732993632   -2.11001162028966    6.15306919899463
C         9.14797550211900   -3.88050426326954    5.25285065656350
H         9.20465281809250   -4.45666215940206    6.16403139292415
C         8.74792848863562   -4.46047148143444    4.07735533416558
H         8.51323447296824   -5.51361586766056    4.03196607179108
C         8.66677175175522   -3.69965348881185    2.90273003630038
C         8.93101311948829   -2.30069822914847    2.91542163778109
C         8.70752731040491   -1.57488915260507    1.68429490026192
C         8.57465297449443   -2.30909402114386    0.47471238705981
C         8.55026329356880   -1.62313615569719   -0.74744934678752
H         8.46980168657656   -2.18447314166430   -1.66669515140659
C         8.62785076155709   -0.25329507317708   -0.74440401863129
H         8.65874438514602    0.31967282454256   -1.65654495447954
C         8.58685003914797    0.40069059292027    0.48122867925651
H         8.54939239173853    1.48229461325262    0.51531601087412
C         8.40867028934620   -3.72130097236774    0.50344545624563
H         8.27309609172970   -4.23783340437175   -0.43502302975894
C         8.37505208221646   -4.37452887034753    1.68294732335497
H         8.18417542684949   -5.43672381591354    1.72491799462133
C         6.02881412433287   -0.57061198316924    4.04495424971964
C         6.34679297881215    0.40437256681646    5.02839264567565
C         6.05734299833843    1.69001354948933    4.46815818843572
C         5.39054144849685    1.48239656057900    3.19126636004340
C         5.41003815174837    0.11133204177201    2.92021676075699
C         5.96475319741426   -2.04718330876657    4.26247188033538
H         4.98517819677716   -2.31109154439495    4.66732522528647
H         6.72320855362737   -2.37629831327832    4.96774764704513
H         6.10000106571756   -2.59406871128556    3.33182542466707
C         6.82715708040309    0.16684114117896    6.42303562866075
H         5.98504505314206    0.22672841532381    7.11497708982307
H         7.55652782616872    0.92248320497198    6.70633481823221
H         7.28485913515924   -0.81452195521815    6.51934624390516
C         6.12662080227055    2.98300108002465    5.21434346682609
H         5.36482267930836    3.00737508752809    5.99539845555901
H         5.97198998904634    3.82358192085207    4.54353286183562
H         7.10392419092825    3.09427558131101    5.68271046026106
C         4.75865196121500    2.57230771758832    2.38944807582791
H         3.96178165737760    3.04222905920183    2.96692141409916
H         4.33644272216480    2.18668151863655    1.46483555903829
H         5.49491272156162    3.33667836063684    2.14060031511961
C         4.79107862876286   -0.59457839589433    1.75490189409100
H         3.80377613415743   -0.97208950651904    2.02825278436396
H         5.39891876383323   -1.44394458808254    1.44369082247432
H         4.67853211333794    0.07368497236984    0.90387944928494

