57
CSD_code = ROJGAB | q = 0 | S = 0 | Stoichiometry = C20H24N6NiO6 | MND = 6
C         3.05092091563862    4.03217372592508    5.33083326435785
C         3.99851754045410    5.06362610456123    5.21116098849761
H         4.33346522550428    5.56077745331339    6.10903533232548
C         4.47165329957745    5.41756500528336    3.98414308465096
H         5.20397935272412    6.20410424629706    3.88078473586297
C         4.01224860026964    4.78739277983287    2.78641762755707
C         3.07168525303804    3.71020938090410    2.94183730004369
C         2.61670690914747    3.35411540019328    4.20450346365852
H         1.90888279623107    2.54633398061189    4.32526283255134
C         2.69719265463558    2.93355299800499    1.79789017556274
H         2.24090951891446    1.96595737588497    2.03157399754820
C         2.67391508040245    2.21464224241575   -0.41723353775372
H         2.25748424441017    2.67709061222886   -1.31306002542130
H         1.96551137126596    1.46950195846864   -0.02992702113509
C         3.98885194053490    1.50236944607959   -0.77424861589426
H         4.49324338540477    1.20485066243772    0.14910050162915
H         3.74633929726372    0.59829071401103   -1.33501230322481
C         4.93642608649474    2.35195409767646   -1.62066699183026
H         5.78989298805432    1.72200433137059   -1.91983169623043
H         4.42085105031507    2.67186981110158   -2.52995018067389
N         2.55167318955991    3.67346878053534    6.61088172420688
N         2.90535977215960    3.24195675095109    0.57315526711446
N         5.37183494975770    3.55007116266077   -0.90389913290465
H         5.96483995501483    4.11267702384281   -1.50835311554572
H         5.92808467681984    3.28228598130423   -0.09408557511693
Ni        3.58592489341121    4.97834403247433    0.00012813279274
O         1.72789583547537    2.77583882005204    6.67203459641645
O         2.96935465544517    4.28258092073831    7.58031427704431
O         4.45630835244516    5.17166389581363    1.66477410021897
C         4.11821954640864    5.92508895699935   -5.33095965684096
C         3.17057210586694    4.89372797865746   -5.21088423180028
H         2.83502718578468    4.39674429993300   -6.10863044935969
C         2.69825347882330    4.53955183054503   -3.98362450383984
H         1.96589982781211    3.75307854141841   -3.87994580545475
C         3.15856827098002    5.16938462063495   -2.78606730168969
C         4.09910365919627    6.24653810716750   -2.94186586003309
C         4.55330107037381    6.60282458293584   -4.20476722134481
H         5.26113306776487    7.41055752046774   -4.32583234685109
C         4.47433309305403    7.02300266550152   -1.79803009363215
H         4.93083341776870    7.99046498532961   -2.03185862524916
C         4.49899786361146    7.74175670975966    0.41711177344332
H         4.91529564829270    7.27910061700798    1.31289739727032
H         5.20775290168091    8.48648422060179    0.02964292516362
C         3.18448083853421    8.45473761046553    0.77423727976549
H         2.68020376932023    8.75256929370630   -0.14907768290194
H         3.42752909884016    9.35865187955018    1.33501625956642
C         2.23649090060789    7.60563481561632    1.62067658098530
H         1.38327515025555    8.23597999524768    1.91973824406961
H         2.75188340688270    7.28558639884565    2.53001290451238
N         4.61663002937379    6.28399881815658   -6.61127496982011
N         4.26675114145159    6.71455454440758   -0.57319624225304
N         1.80061314654992    6.40762920192868    0.90400427711769
H         1.20737300291796    5.84531881873045    1.50850073147788
H         1.24447766624769    6.67557457626866    0.09416551293455
O         5.44057359381791    7.18146604072249   -6.67277509341599
O         4.19822182564171    5.67515291949443   -7.58055233650074
O         2.71515150177102    4.78496975492435   -1.66422467162777

