55
CSD_code = ROJLUX | q = 1 | S = 0 | Stoichiometry = C17H33N3ORh(1+) | MND = 6
Rh        2.44412102158862    2.24731934777284    6.82379365929655
O         2.30337583800938    1.98988940312650    4.81117803101407
N         2.57427266276333    2.34701225709128    8.93397184414670
N         3.75685742491053    4.13115439137431    7.01168879744040
N         0.85601706554380    3.88428745836679    7.20611922797089
C         3.54481144135168    3.38466286663925    9.36974078647603
H         4.15483134377406    3.00319158094092   10.19327711773345
H         3.00457460207390    4.24781225175079    9.75879674996400
C         4.48708721856059    3.81969625272387    8.24582808358681
H         5.17526604718099    3.00049292211273    8.02352858576505
H         5.08110395925994    4.68031369965215    8.58838099999788
C         2.91055439314034    5.32959670219612    7.15739081082080
H         2.89330061610989    5.64808823866145    8.20065478600526
H         3.33054997831003    6.16424422722444    6.58629841034143
C         1.48508498427643    5.09186645980544    6.65032461231717
H         0.87852169841578    5.98400475886956    6.86775522499806
H         1.52033999742825    4.96171885406664    5.56506587147275
C         0.66263639436092    3.96033757422058    8.66442268642534
H        -0.40112648640487    4.04598484006760    8.90879354078963
H         1.14304383117314    4.85656801309859    9.05992107954624
C         1.20393750101536    2.70526781827572    9.35737142162611
H         0.55834417196607    1.86022494391711    9.10551113534602
H         1.16904870111707    2.85059171814635   10.44584015196856
C         2.92916423832357    1.08227982234001    9.58861676633265
H         2.86551933385875    1.17845208798858   10.67832328751533
H         3.94516911814702    0.80495876995537    9.31868114164642
H         2.25082968026995    0.29528747042930    9.27131810646640
C         4.69970321024439    4.32392131978890    5.91026629791070
H         5.32412298356665    3.44052826862099    5.79225612549158
H         4.15003513666621    4.48879897877416    4.98492284969704
H         5.35417040304191    5.18537967780158    6.09228890568398
C        -0.43152685451712    3.68229195906139    6.54121989012328
H        -0.90254769099347    2.77496056542293    6.91381654200938
H        -0.28326437901310    3.58490067576350    5.46726884251419
H        -1.10668585588434    4.52828263287433    6.71927409975995
C         1.24592510633957    1.00249841568568    4.90105845630055
H         0.31129604737170    1.51297660897547    4.65201063222012
C         1.27264805308719    0.61180647378249    6.38448814275513
H         0.25906186955569    0.62872826654045    6.80159077106002
C         1.95526579224091   -0.71477933058020    6.71177416568215
H         1.65536545699137   -1.03618981955162    7.70992869319594
H         1.61291050077782   -1.49565107438799    6.03089147169625
C         3.48018148098621   -0.54716367907423    6.64632743185307
H         3.91523963201136   -0.70758729666141    7.63208413425972
H         3.94019466027933   -1.28907607655676    5.98988178183415
C         3.82183128360655    0.86394160429108    6.18068188166630
H         4.87034538461001    1.08949516353863    6.40883077866767
C         3.50871012832809    1.18779242711852    4.71315893707956
H         4.27878226716952    1.83581709250508    4.28421331504606
C         3.14263435797093    0.04861790055293    3.75171324755044
H         3.62649318785658   -0.88365993531681    4.02591855585106
H         3.46028520130540    0.30211483815050    2.74148691455498
C         1.61212176480231   -0.03332357660996    3.83382358657679
H         1.24951609407099   -1.02644722213767    4.08123924811149
H         1.16354800100296    0.25612041081374    2.88399138383875

