83
CSD_code = ROJMEJ | q = 0 | S = 0 | Stoichiometry = C33H46LaN3 | MND = 9
La        3.20941983187365    0.62071445823786    6.12279671688743
N         1.82218980564203    1.70241010799977    8.59779367481362
N         2.83303243796775   -0.87892315848988    8.70728147025434
N         4.73794837820092    1.54516965060496    8.60493900844613
C         1.11604012152168    2.93460352779287    8.25066399699223
C         0.83107550021487    0.64362813763271    8.78427206945568
C         1.43709190551415   -0.72671423922812    9.12525467278785
C         3.10826506062804   -2.29832269602066    8.46785848467183
C         3.73368055462928   -0.39329350887009    9.75421465941937
C         3.96812405055547    1.13184343737088    9.79056388965703
C         4.68603304333089    1.42743242263125   11.12597902253544
C         2.61872516224406    1.88281375854025    9.81300281551046
C         4.91264183496731    3.00912588686848    8.46170648241678
C         6.27061471343190    3.23001831096251    7.77869340660200
C         6.72428618938107    1.82375234561001    7.40091370276863
C         6.09259534347274    0.98569676044500    8.50213394383283
C         1.12526468427697   -0.20919012361728    4.86552765647425
C         0.47315876111517   -1.29341472527270    5.58068319080587
C         0.99772105658395   -2.60062600056504    5.57435089396844
C         0.39739153943099   -3.62165245057669    6.27925568337010
C        -0.75288825727161   -3.38802824977099    7.02179548189992
C        -1.30960151871398   -2.11808128073318    7.01593554869207
C        -0.71828041721739   -1.09577444668265    6.30198078706261
C         4.91770711739393   -1.14766316689928    5.44364739983460
C         5.44456222587054   -0.75927828325343    4.13370033139506
C         4.73175051192249   -1.02856858686452    2.95286142635934
C         5.20886460170045   -0.63881266783326    1.72023634570827
C         6.41974333244552    0.02954466043643    1.61206435483406
C         7.15173259587641    0.28645168072302    2.75965328403384
C         6.67849420217820   -0.10556700494997    3.99518168332997
C         3.69727164039956    2.69805031822934    4.70848171174877
C         2.78853377291919    3.77350146417129    5.08737312286870
C         3.20713618329708    4.86937152994123    5.86156939240093
C         2.32733770817824    5.85962337456088    6.25052578370625
C         0.99638267963182    5.80987773633568    5.86845166323939
C         0.56649442557591    4.76056936299915    5.06686803863888
C         1.43999686591669    3.76772919852294    4.68164587562021
H         0.42480333517584    3.24693671454498    9.04674377347580
H         0.54259811671090    2.78397065415820    7.33638080538089
H         1.82431385529812    3.74055545623827    8.06817194387188
H         0.26838620343266    0.55571782467503    7.85267369700846
H         0.11832741000144    0.91910221460251    9.58161532094177
H         1.34879622907036   -0.91838115587945   10.20706234565965
H         0.83551449790286   -1.48152176922098    8.61446843356169
H         2.96185276462327   -2.89837185236401    9.37706961491209
H         4.13608962556682   -2.42275584645372    8.12990827940806
H         2.44142240014724   -2.67143356012547    7.69139560817586
H         4.70157338311966   -0.87859218169389    9.62464555445074
H         3.35587353882528   -0.69625226736568   10.74528155840948
H         5.51030760341315    0.73728737841633   11.28655830793558
H         3.99080128410392    1.31423542966108   11.95391439810912
H         5.07437026004143    2.44150578647527   11.15532647218855
H         2.05389460829954    1.54921511481903   10.69505556703333
H         2.82044834640656    2.94616631751897    9.95076097671174
H         4.90418153170826    3.52203594301138    9.42993838720539
H         4.09763962629526    3.41060034350238    7.85649240810821
H         6.18960226346146    3.88060322082316    6.91067363127184
H         6.97935167643949    3.68252490383442    8.47409670787811
H         6.30470660678065    1.53873748876442    6.43206243653726
H         7.80771087178699    1.72213770247124    7.36774407063659
H         6.06679554733066   -0.07307341733382    8.24488891676459
H         6.66524071151686    1.11634754187849    9.43124724570918
H         0.43148880442246    0.61957547472430    4.68817580538263
H         1.53657836509277   -0.55243379766420    3.91036944086667
H         1.88881610277247   -2.80208767985352    4.99135064486889
H         0.82271152529552   -4.61620203561427    6.25063327367841
H        -1.21897170760302   -4.18871687474400    7.57659070911774
H        -2.22420713883505   -1.92985339688978    7.56234939747279
H        -1.19477160319533   -0.12284057200497    6.27327352943274
H         5.73183951824121   -1.25605708457880    6.17081373525532
H         4.37283001836163   -2.09635274208142    5.37530237095225
H         3.78918297510353   -1.55907344413834    3.01847003315687
H         4.63716677652273   -0.86071219688525    0.82940420921256
H         6.79138660837352    0.33595741030328    0.64544754460788
H         8.10650724619149    0.78992189351528    2.68783344140391
H         7.27857789699425    0.08266525314127    4.87723214934945
H         4.74375383764161    3.01403721820605    4.77949216112337
H         3.49748252348168    2.35307726398707    3.68727759161880
H         4.25093166971062    4.95238893310133    6.13788396668047
H         2.68544011843426    6.68856684846532    6.84715875869240
H         0.30942465533633    6.58623505671339    6.17084833655930
H        -0.46280360817714    4.72802702250782    4.73561154585611
H         1.09319547322967    2.96496192394408    4.04164722026674

