83
CSD_code = ROJMAF | q = 0 | S = 0 | Stoichiometry = C33H46N3Sc | MND = 6
Sc       -0.29251116499910   -0.25203720455931    4.99996348099495
N         2.25026262478274   -0.68083325390149    4.23610596961013
N         0.46844090547778   -2.74059567932807    4.62517598554882
N         1.42608033991209   -1.01697331244406    6.98939909355327
C         2.95313430330867    0.52182236339075    3.78674667571678
C         2.00866979229353   -1.51725717305417    3.06131572960650
C         1.24913062173989   -2.81003054431882    3.38372032164198
C        -0.64739818151375   -3.68795607535667    4.50843242899462
C         1.29894243967444   -3.14834980989910    5.76303101427186
C         2.23387930562720   -2.06292687335863    6.33453929247766
C         3.21659800940308   -2.78482771975966    7.28326348928559
C         3.06471715680682   -1.42020296400726    5.20574681939060
C         0.71063405691385   -1.45420411006564    8.19907547881760
C         0.27494258030250   -0.14061466696247    8.82723437167888
C         1.54225870173631    0.69762494690653    8.70552452509669
C         2.21598068055661    0.15733500494163    7.43564462237626
C        -2.15401530826793   -1.06623682698390    6.06339152400414
C        -2.97825635730861   -0.00610697490388    6.65187586076434
C        -3.12557772103715    0.14148508823762    8.03939406009340
C        -3.87755235015598    1.16370999555445    8.58336545701463
C        -4.53210291828521    2.06813795434005    7.76405809643365
C        -4.43586918875242    1.92022597660275    6.38767502778167
C        -3.68051137224730    0.90432688266913    5.84388706207073
C        -0.24660670795842    1.96526506217725    5.60992244912268
C         0.76762389943624    2.80282232812742    4.97861073453113
C         1.88864595086261    3.28624455865781    5.67618872759931
C         2.86264124920819    4.04201843100202    5.05457177725260
C         2.75204041687009    4.36902336128114    3.71326499891085
C         1.62919094316266    3.94910440150584    3.01259823696606
C         0.65905814250405    3.19039477052124    3.62956944876791
C        -1.07146101434182    0.03217651753437    2.82391474563107
C        -1.56667376991481   -1.12630606153020    2.09434051745074
C        -0.83950605457954   -1.73485982958833    1.05435786063325
C        -1.29849049752409   -2.86475380780887    0.40711710336365
C        -2.51494164646826   -3.43099876350025    0.75179544378199
C        -3.28293259313039   -2.81688461367713    1.73201092069783
C        -2.82634329216998   -1.68973714505146    2.37896433256576
H         3.16183589169978    1.18123709920416    4.62629652604244
H         2.32704419436994    1.07189235071868    3.08538871170141
H         3.90172220748769    0.27226887894214    3.28993168478961
H         2.96378819144734   -1.77741885076830    2.57115676440749
H         1.42422561155527   -0.92346521765197    2.35841375154133
H         0.56255670378200   -2.99958183782547    2.55493124625137
H         1.94846547741386   -3.66059065100666    3.43203482741720
H        -1.29520906642517   -3.39165727394812    3.68475606155500
H        -1.23554175081387   -3.68769594196050    5.42371082381475
H        -0.28451684621060   -4.70911637811617    4.32598654744444
H         1.91980382711589   -4.01627186135941    5.48229816330180
H         0.63917846072622   -3.47894742832068    6.56653091123674
H         3.76546533945016   -2.08109047203937    7.90289616090874
H         3.94134071633406   -3.35062381803718    6.70289973276952
H         2.69356446630915   -3.48210968168552    7.93267881176326
H         3.79446118896923   -0.74303173877422    5.65262935081278
H         3.63739101415394   -2.21151934478586    4.70120347998240
H         1.37336501492665   -1.98740589457373    8.89469803448283
H        -0.13791274295268   -2.09066001781020    7.95440026662914
H        -0.06004392613857   -0.25820828022890    9.85588165513668
H        -0.52888095856744    0.29748424704902    8.23183027920129
H         1.32405877608922    1.76075733818865    8.63048273227427
H         2.18501168901913    0.54662198344100    9.57438568910663
H         2.21829699958290    0.90460582161548    6.64227540867206
H         3.25362529524075   -0.11138290315001    7.66376454953659
H        -2.69888252753369   -1.51975049226580    5.22262580893008
H        -1.99221458256777   -1.85180738654710    6.81624800205525
H        -2.65233510390387   -0.57456229779151    8.70073858000814
H        -3.96525706827915    1.24923181644280    9.65852431719725
H        -5.12099847189126    2.86741210698922    8.18929695192653
H        -4.96167056391644    2.60559374779920    5.73640321588866
H        -3.62323849961140    0.79838964147283    4.76693640454512
H        -1.24329204165117    2.26795220220190    5.25431824882034
H        -0.22518297067844    2.10511309144530    6.69879938338964
H         1.98091843278004    3.08631432293756    6.73688188072784
H         3.71149300099954    4.39402255402880    5.62644457117960
H         3.51209358796832    4.96340899331403    3.22820796317378
H         1.51121408282475    4.22946238340354    1.97442341623325
H        -0.21941649442146    2.88879163805292    3.07340240778492
H        -1.90547030887262    0.72151757444056    3.02057058261154
H        -0.32172220260319    0.56592609735492    2.22138526560170
H         0.09343766262710   -1.29062361075958    0.72727172937273
H        -0.70580079298613   -3.30282494043319   -0.38550917680873
H        -2.87253920023729   -4.31592877383347    0.24696618921905
H        -4.25370323762109   -3.22164908811562    1.98374516966384
H        -3.45455045689150   -1.21240394061921    3.11956323319703

