59
CSD_code = ROJMAH | q = 0 | S = 0 | Stoichiometry = C28H16B2N4RuS8 | MND = 6
Ru       14.80067109120382   12.39269876785598   13.63777361911928
S        14.50069492907333   13.49490270704263   11.40911563469443
S        14.49104948284296   11.67753897340073    8.94204481456908
S        16.60103081009669   13.76079603677826   14.55266284839749
S        19.45758779468206   13.75716738604069   13.74588392528851
S        15.11420371484616   10.67135983014863   15.42625730300053
S        15.19413294169808    7.73639241670103   14.54902353003595
S        12.95436723382318   13.67599375969483   14.58221543230826
S        10.10700593221555   12.86035508348486   14.78184055339099
N        15.86494849709207   11.27488549501042   11.08717919670821
N        17.64406255398352   12.29387773676939   12.56850807708039
N        13.80003457249106    9.59255212133524   13.42531655880751
N        11.97557751381676   11.29200054085790   13.85156051429063
B        16.28489620266613   11.73778112715869   12.46089523906452
B        13.34976876413523   11.03227709754289   13.39119470972042
C        15.04425318431232   12.17245664334238   10.52056044718591
C        15.30311029718706   10.13621173377612    9.15302439998789
C        15.30491252748485    9.03987336339585    8.31078121798455
H        14.79395841459852    9.08039564476798    7.36266243291592
C        15.96546613104136    7.89609997925886    8.72471227782362
H        15.97394480297245    7.02816431680669    8.08467584620445
C        16.60682336053283    7.84673969066368    9.95809242093362
H        17.09997155950917    6.93805643183091   10.26605963319403
C        16.62213414466483    8.94240014435173   10.79742547251623
H        17.11563160203126    8.91695910668873   11.75682707493783
C        15.97645509412735   10.10525133941114   10.38505902553513
C        17.81869691838100   13.18609002610959   13.59468483615420
C        19.91118087656071   12.81638042168435   12.34354781512167
C        21.16384781085127   12.75537201266387   11.76256580987018
H        21.98291535543399   13.31205239099897   12.18815164000821
C        21.32879452265684   11.97516799353649   10.63278024742299
H        22.29622832684186   11.91260539414693   10.16004846330684
C        20.24979444002164   11.28112247994038   10.10516598115784
H        20.38085468487943   10.68109222701149    9.21762142195264
C        18.99769087519627   11.34030589438632   10.69055657002786
H        18.18586243212692   10.79152797246167   10.25035128278826
C        18.81119755938002   12.11091993756370   11.83182558622645
C        14.61045886139799    9.37843402782627   14.47314135272302
C        14.40856203091457    7.39800069949545   13.01661358802560
C        14.43731637676584    6.23420435593995   12.27090442428723
H        14.95904514319543    5.36509077105724   12.63722358803333
C        13.79264196810037    6.22416657801446   11.04603394643927
H        13.80785411949446    5.32772849812371   10.44664666986960
C        13.13708800517613    7.35620536984165   10.57287954257882
H        12.65682251587507    7.32915001524679    9.60728311537062
C        13.09098363707792    8.51660572348664   11.31884688481122
H        12.58575639043178    9.40144915568507   10.96346227092843
C        13.72011542863530    8.53417427905875   12.56107927086461
C        11.76365855099909   12.55671827640491   14.33670251896167
C         9.69772743918392   11.21108019301707   14.36961047617749
C         8.45483048596979   10.61749473968862   14.48507782999550
H         7.61503126121724   11.19082541246646   14.84265351947278
C         8.32652257410610    9.28466213078838   14.13957509571753
H         7.36745258075369    8.79826532840559   14.22285523472979
C         9.43163584550054    8.57365043736532   13.69529854043081
H         9.32945865975855    7.53067896755678   13.43710142880433
C        10.67384448000759    9.17087734709186   13.57617816425993
H        11.50661367319772    8.58564914255520   13.23289596459051
C        10.82362301665244   10.51196432643149   13.90798471331116

