79
CSD_code = ROJMEL | q = 0 | S = 0 | Stoichiometry = C31H29B2N4O3PRuS8 | MND = 6
Ru        4.18728558010308   17.61413911502197    4.60051547399338
P         2.39214596271504   16.26839968292018    4.28080759462472
O         1.39636824796898   16.36193796259005    3.03134740791032
C         0.51783985583186   17.45798239866283    2.84287031008892
H        -0.01833137834455   17.69024895360783    3.76396902593158
H        -0.18780834749951   17.15530868463879    2.06951747899867
H         1.06892186091885   18.33815116977916    2.50438906103080
O         1.24725618454406   16.09917664216201    5.41521333578974
C         1.55009718556470   16.00044337512147    6.79542520646766
H         2.16598913014640   15.12230556265260    6.99917166581651
H         0.59449893561425   15.91369217163355    7.31192069353949
H         2.07437077500384   16.89314228776134    7.14456957792487
O         2.97598685140532   14.80054147528369    4.05390876494738
C         2.12282502947448   13.69031796484712    3.79031786542077
H         1.17759420738178   13.79087456293743    4.32632968569794
H         2.65369529552862   12.80112085087712    4.12952810490760
H         1.92556688461940   13.62066104820223    2.72055359423346
S         2.73185545600876   19.12963563307804    5.89917171338444
S         0.48535371855457   20.55247524949993    4.63249912016013
S         3.72558345499983   18.68793495539080    2.43573939639599
S         5.64332239003495   19.88104690322782    0.55307804111421
S         4.80023403438995   16.36080150841375    6.51838943321403
S         7.32435218620934   15.17798537642429    7.41500150856600
S         5.49250912920564   16.06201380355745    3.25111459969055
S         7.59327808141796   16.73527963849471    1.25995264272265
C         2.21184093072563   20.29224770124435    4.80511189530972
N         2.93465502468443   21.09065925406714    4.03119027017703
C         2.17374631383516   21.88788040953059    3.20887565638838
C         0.79019842833978   21.73969500072105    3.39262996780295
C        -0.12748328508403   22.46630853304802    2.65538398606656
H        -1.18437684678849   22.33371688437961    2.82068823818887
C         0.35112378341669   23.35339262272933    1.70967241827300
H        -0.34372399554657   23.92835391237508    1.11757096165356
C         1.71943823661350   23.51101413176625    1.51652196956988
H         2.07423643478331   24.21043242594556    0.77482605930505
C         2.63655185868539   22.79087834820901    2.25577544247723
H         3.69389318541114   22.92964129948835    2.10446119392829
B         4.46679151822226   21.32825748166708    4.20690266190688
H         4.87908004827464   20.66821613640316    5.09900757002142
H         4.59417412178095   22.49598400100082    4.38063206258830
N         5.18987637306130   20.94030781003583    2.86923721107474
C         4.84462578199466   19.89938724664504    2.12305387008159
C         6.16752715083460   21.71883960841943    2.29134471917541
C         6.53146213853757   21.31037532471920    0.99736866551168
C         7.47859215705509   21.98722281162053    0.25091052849657
H         7.72948726307307   21.64842096869481   -0.74105582573847
C         8.08755602077263   23.09160788591964    0.81500183557670
H         8.82949873103420   23.63738050547112    0.25329222279049
C         7.75567117432566   23.49681994471844    2.10320922320116
H         8.24907602950801   24.35494377760879    2.53358505431122
C         6.80712031768477   22.82380583408037    2.84715421533307
H         6.56018823653343   23.13858571047059    3.84644460416712
C         6.47199314060284   16.35749878662505    6.44690657434558
N         7.28664188709476   17.16716185404086    5.76099117234221
C         8.62242570796142   16.89186816398889    5.97734862872564
C         8.84708334456192   15.82191951202974    6.85694240553798
C        10.12118187163327   15.39941419658835    7.18937681415792
H        10.25788288514603   14.57398070273944    7.86884454039113
C        11.19774673150394   16.06248229038026    6.63013542494191
H        12.20182629746914   15.75085289688923    6.87154307145888
C        10.99194172173704   17.12948764687474    5.76427188469874
H        11.84078557472436   17.64334324359335    5.33961888537358
C         9.71904376237781   17.55252637261509    5.43262957659280
H         9.58183495681656   18.38761543823901    4.76872409636331
B         6.82633083370527   18.37793627197417    4.89366440657413
H         5.58383858292032   18.49972641699297    4.94961236461295
H         7.33135618636189   19.36485307741561    5.30215522936710
N         7.23339363343492   18.11264109098508    3.41868173112035
C         6.75961899408058   17.04103703740935    2.76675795031820
C         8.19176230225075   18.80145420982997    2.70686731696439
C         8.53619998990795   18.18759870727243    1.49234779673543
C         9.48125323881925   18.73099375919865    0.64138368743129
H         9.72330221747178   18.23546019498522   -0.28462402353150
C        10.09217928882465   19.91511651164221    1.00961121563311
H        10.83256056027491   20.35830844828919    0.36250337735295
C         9.75193812256016   20.54209614051308    2.20216921928786
H        10.22813515918346   21.47185636292471    2.47146942452440
C         8.80630246713809   20.00264285261087    3.05185993879332
H         8.53582269771638   20.50903526567280    3.96350930936067

