74
CSD_code = ROJNAI | q = 0 | S = 0 | Stoichiometry = C30H25B2N4O3PRuS8 | MND = 6
B        -0.66353090768148    3.13948170420013   11.89164839886492
B        -3.15639782613716    0.64820717042529   16.96133425704473
H        -3.82583891934595    0.32840284294903   17.88855246210760
C         0.83502374603026    4.77868012231893   13.19915221204639
C         2.22089687193918    5.54878415162061   11.30649572490393
C         3.07467151797784    6.08121240672571   10.35773175275856
H         3.78409569693351    6.84392012735215   10.63470067019143
C         2.98845780080618    5.60908040975744    9.06125253920265
H         3.64503981983532    6.00589027992336    8.30292619212909
C         2.05945066249923    4.62984505838061    8.73109952867359
H         1.99938224861954    4.27313753859868    7.71422510106478
C         1.20522302768564    4.09882274346333    9.67843652186162
H         0.48736040838529    3.34749665162956    9.40026933612772
C         1.28153529099028    4.55566452759905   10.99053030755364
C         0.76442870452048    1.10818356150048   12.33283332751889
C        -0.24113260694017    1.10812104189622   10.30453623361343
C        -1.12140724817340    1.43850666321142    9.27698796987063
H        -1.79992272065310    2.26761060453897    9.38932754889566
C        -1.12559164066855    0.67900341279402    8.12326376229529
H        -1.80893948264210    0.93584702345788    7.32840587621051
C        -0.27304064427322   -0.40810922172109    7.96977707545023
H        -0.29336646424456   -0.98300530883500    7.05722301187393
C         0.59174374704412   -0.76700265537940    8.98667389367416
H         1.24879719497005   -1.61652056598573    8.89443888748001
C         0.59207130119951   -0.01015880626945   10.14427409853870
C        -1.96085184558817   -0.68473483528821   15.11410106072896
C        -1.52400242514435   -2.76526489321921   16.36517775125520
C        -1.18598846479561   -3.98155979821127   16.93280698914139
H        -0.69202363347168   -4.73577768233763   16.34198730563541
C        -1.49152775307996   -4.19020853706098   18.26396814361940
H        -1.23564936823536   -5.12843190350205   18.73081305112355
C        -2.11898198270387   -3.19493667140059   19.00544884187788
H        -2.34316144210813   -3.36944581085152   20.04645295399115
C        -2.45952384256123   -1.98210047308141   18.43945468313711
H        -2.93507851644639   -1.21598029029386   19.02667496295386
C        -2.16925697027300   -1.75465800019104   17.09650424635767
C        -4.23036370111392    2.40120409461319   15.33302052309918
C        -5.33053477107031    0.45181376653941   15.68481423623301
C        -5.56713748032285   -0.86663839950322   16.06396881621487
H        -4.80807915227633   -1.43633514355729   16.57129683678343
C        -6.79341738882052   -1.43797472206100   15.78272591272643
H        -6.97395379482721   -2.46110933083606   16.07492866460828
C        -7.79350923458435   -0.72395225046472   15.13334535395774
H        -8.74232813414334   -1.19379704507843   14.92661126571883
C        -7.57754701596898    0.58486518390183   14.74671347735356
H        -8.33734431836993    1.15658764439449   14.23924187349760
C        -6.34686947241534    1.15469914030033   15.02169012806099
C         0.87857023346713    3.64796290202774   17.76057503193531
H         1.51930481526722    3.18881356091099   17.00235461670837
H         1.35956275670036    3.57415291264426   18.73747680489133
H         0.72347814974100    4.69818441328446   17.50726264500378
C         0.42491466606599    0.18760143192537   18.18605910231478
H        -0.37529522440665    0.46723256040925   18.87535640408181
H         1.37558262087378    0.57715364554295   18.55527167256173
H         0.48157414839802   -0.89972464435093   18.11198042948344
H        -1.31610537685395    3.05315886500655   12.95390041515229
H        -1.37793098959632    3.54181612362156   11.04125132007297
N         0.52008298299923    4.14212899881505   12.06626866069740
N        -0.07965204025039    1.74697972011844   11.51570236508515
N        -2.43642958164003   -0.62063095688757   16.35650936251929
N        -4.17354662410047    1.18608393771325   15.88336613579275
O        -2.17117813789010    1.59140802106928   17.40813216326559
O        -0.37502361549390    2.99315680599093   17.84790023531969
O         0.17155754627108    0.69843008813383   16.88600967885787
P        -0.83134283317951    1.97439692245485   16.69771538105922
Ru       -0.99398806769858    2.55594565850958   14.54761575490636
S         2.11231096385461    5.95497977014629   13.00003150283378
S         0.16921528136054    4.61296878937931   14.72725479058944
S         1.09366760329331    1.49365273416781   13.92828663144074
S         1.54065686489952   -0.26614070884728   11.58787903721737
S        -2.05879826606165    0.45541890531272   13.89369380990547
S        -3.07341528079361    3.60692063620968   15.20259648354288
S        -1.22700089383840   -2.22691925860594   14.73656065240750
S        -5.79505057156334    2.75710263820439   14.62624514451235

