128
CSD_code = ROJNEK | q = 0 | S = 0 | Stoichiometry = C55H66BOPPdSSi2 | MND = 5
Pd        4.07997310139712    6.20977642967775    5.17123976772076
S         7.35938437144648    7.39342999304945    6.57251162613137
P         6.19490522471975    5.02480971983985    5.25372201657847
Si        1.26063147288998    5.16046883201600    3.98868721241672
Si        2.48156201461271    7.52276257607119    2.56469841121453
O         1.28863999567796    6.50723260456479    3.05154874104867
B         7.06374364352958    7.64729606675705    9.66684946217510
C        10.32365469554996    6.58829881870018    3.96787940961139
H        11.28797398701347    6.97544683571317    3.69451451066652
C         9.86167173254286    5.43550027135128    3.34715027784967
C         8.59854269466121    4.96138425450363    3.68839236256772
H         8.20964154836428    4.07759068907847    3.20743078169665
C         7.83767558122501    5.59012798499857    4.65652322840204
C         8.40994666638211    8.07088695864629    8.99537888682100
C         9.45128987104517    8.50579148946284    9.81181320880934
H         9.27243939719998    8.52468097410231   10.87630571529041
C        10.68203410336560    8.90422457813165    9.30895465309223
C        10.85155517045537    8.88780261321984    7.93169478867750
H        11.79281851976353    9.20310884831470    7.52144815668537
C        10.00831483193067    8.58106155796565    5.54987427389245
C         9.57681673558641    7.26505957932516    4.92643496414469
C         8.35039577094435    6.72370787624437    5.28751236502253
C         8.63981165579808    8.05275170740684    7.61108505818565
C         9.84326883245171    8.48772156297576    7.06121248123030
C        11.42758621220234    8.97440519484827    5.13403554060138
H        11.68393128440790    9.94543680333807    5.55101194697765
H        11.48031383305837    9.06805507229235    4.05175814406687
H        12.16020626174494    8.24018924667412    5.46218781488611
C         9.06553925936494    9.69021084207742    5.03526408661191
H         9.34097869535661   10.64377382633334    5.48123932590848
H         8.03007528002613    9.48100466824816    5.28652209294274
H         9.14531460694786    9.77124681212708    3.95315653656355
C        10.67240492289870    4.67109868604871    2.31067837244427
C        12.04097981585369    5.30294434975928    2.04267874635870
H        12.64333262731209    5.33231286767068    2.94782598158975
H        11.93752174170008    6.31102860233486    1.64766499751934
H        12.57482420274000    4.70817895626166    1.30422618383974
C         9.89273917755290    4.63605387136945    0.98858147991398
H        10.46523707348219    4.10517448044135    0.23087463775639
H         9.70682292569198    5.64809099280420    0.63465429468445
H         8.93605872276446    4.13404457197065    1.10495002806310
C        10.89763332495260    3.23926623009484    2.81818153310831
H        11.41003810541954    3.25693122888074    3.77815977543916
H        11.50864528895084    2.68256251328443    2.11081249122945
H         9.95668827954819    2.70978828002224    2.94223921316829
C        11.77715254630722    9.33839043666336   10.27125070580528
C        12.09300873138266    8.17273521720723   11.21919608921428
H        12.87689307171413    8.45866406406620   11.91749704771289
H        12.43430664392664    7.30935722856990   10.65147756838731
H        11.21678960211566    7.87897402781974   11.79062263984319
C        13.07233133540524    9.73945533166037    9.55955094653406
H        12.91056056639384   10.58864304390580    8.89930130780400
H        13.47721028289656    8.90993752453979    8.98418106370107
H        13.81658288774819   10.02842106292100   10.29900299191028
C        11.28236692133060   10.54598689778589   11.07952309578343
H        11.02783174389213   11.36674698378832   10.41188977539265
H        12.05899132521817   10.88462431987024   11.76219806437669
H        10.40086520049483   10.29616133710305   11.66329850222595
C         4.92762783190049    7.85299153250392    4.06647918976889
H         5.54292994428311    8.45037405617840    4.73694645002575
H         5.45455217563575    7.43419892660995    3.20994434834835
C         3.56458747363551    8.04002615360393    4.01859619880629
H         3.13957530681397    8.76052626016399    4.71600011754796
C         3.02340048444746    4.63249960116851    6.18343499508339
H         3.26655610162154    3.70595369178055    5.66640985865416
H         3.22442554174411    4.61445382425078    7.25269982131815
C         2.07069982189162    5.48321211420829    5.65945500756004
H         1.58861168864309    6.18614684775210    6.33824275105310
C         3.50191924083525    6.66355509001429    1.20160397903718
H         2.85538300128930    6.33681504923759    0.39286143852013
H         4.00703151369284    5.78568944008702    1.59322037675175
H         4.24977778009957    7.32798855332251    0.78033710156730
C         1.55640538293091    9.03444840413200    1.87381523656111
H         0.89397131819181    8.73761612005372    1.06907986674057
H         2.25060236647740    9.76877536258381    1.48114480277079
H         0.95263332165755    9.51803550742585    2.63372043065523
C        -0.58806008084969    4.76454290966478    4.18718431161285
H        -1.12095200731559    5.57819073321909    4.66610082957131
H        -0.73171790066795    3.87180876079683    4.78499018870160
H        -1.04521611983913    4.59677719680541    3.21918805110204
C         2.20333450033747    3.76973523600942    3.08951779723842
H         1.92682666970134    3.71932701567465    2.04113323306054
H         2.01422844425355    2.79628960406437    3.53026516990496
H         3.27458014791826    3.95644389668329    3.14333003069763
C         5.88289488637449    3.65542732313240    4.08807250418076
C         5.60274679129861    2.35593889815171    4.49470617178072
H         5.62663050103948    2.10612266045637    5.54675284522273
C         5.29569782356645    1.38505485713263    3.55676171267511
H         5.08111588432898    0.37679947030838    3.88095537316392
C         5.26268166473964    1.69911005279470    2.20851670764835
H         5.02744516117510    0.93689376149985    1.48060356336906
C         5.52123022468093    2.99702700705425    1.79516266642783
H         5.48316999316002    3.24930904369164    0.74497692453033
C         5.81626388158134    3.97076891405016    2.73043456864646
H         6.01161333469057    4.99090024060828    2.42042177621785
C         6.81785865513225    4.13658644428518    6.72586411535193
C         7.89717232921758    3.26169310388759    6.66377598229454
H         8.37912674145470    3.06463432946741    5.71624491650685
C         8.35137471029760    2.64925859596237    7.81700604958925
H         9.18922015456449    1.96813107255327    7.76857094789487
C         7.73958951893905    2.90824600784661    9.03416726910186
H         8.10152063211264    2.42948972225626    9.93237928492211
C         6.66815697214726    3.78248885011239    9.09993703724239
H         6.19594591413449    3.98803911642587   10.04959649882126
C         6.21258985923262    4.39541018735827    7.94690194020071
H         5.39071617667192    5.09778626350850    7.97017676458026
C         7.12748794471077    6.83880747780074   11.00015540608802
C         8.15148462365777    5.91177686965822   11.22533257511204
H         8.90238691867710    5.76614036855488   10.46128400521109
C         8.20764403431965    5.16539113000098   12.38734475430977
H         9.00389907860247    4.44842260989338   12.53095115139519
C         7.24776988309696    5.33904865243887   13.37123449831275
H         7.29186098485704    4.75984614405900   14.28254070941674
C         6.23092795926325    6.26058008830470   13.18023399929125
H         5.48246891594848    6.40406139912030   13.94692782705606
C         6.16978284920495    6.99177037547355   12.00827476336681
H         5.37568617951755    7.71277666773406   11.87193223685774
C         5.70608496506258    7.97222318034012    8.98512929705182
C         4.62015666026794    7.10105073007196    9.13121062391719
H         4.68839968073471    6.29593938516465    9.85001924360618
C         3.47369320713988    7.23655867521223    8.36936860441227
H         2.64108567851804    6.56377887463364    8.52667291123905
C         3.37131256037240    8.26566758736036    7.44125203795426
H         2.45263087020732    8.40467161113179    6.88399457861325
C         4.40342076693843    9.19175719706064    7.33706394136035
H         4.30900936296323   10.03238705087089    6.66297908709343
C         5.54770677545188    9.04388087233504    8.09553613258582
H         6.34327022120576    9.77140684738638    8.00761903052346

