78
CSD_code = ROJRIU | q = 0 | S = 0 | Stoichiometry = C31H36BFeN3O6 | MND = 6
Fe        9.48320099927723    2.66347608909141    8.90598491365316
B         9.56526326242385    5.91863831976365    9.02288648573440
C         8.55041321044633    3.31109257879502   12.62362798322386
H         8.15944554435261    2.41627411062146   12.14959348389344
H         7.86052264918721    4.13105501375296   12.43362213087988
H         8.61462588288944    3.14322944300408   13.69638497558254
C         9.93412492247734    3.64618486494632   12.05746692148385
C        10.91820117282842    2.52242533704166   12.35313738747954
H        10.54513333044046    1.59122778979684   11.93587761685749
H        11.03525362208840    2.40668065574913   13.42843868733429
H        11.88810323311562    2.73198258561020   11.91049482255451
C        10.42303060045112    5.01569999670952   12.58201910941532
H         9.84812532359937    5.38214215741635   13.43469836003312
H        11.48735268391469    5.00679735604768   12.83966602354922
C         9.91194150208283    5.17835191918672   10.41566704528424
C         6.30481526626801    3.13602670135357    6.93750499807689
H         6.83419634271212    3.66884552258248    6.15112278328877
H         5.25915244002141    3.03289798661372    6.65704103166411
H         6.74318463402902    2.14758430887389    7.03882714875089
C         6.42567373011913    3.88658195412056    8.26178626874057
C         5.73630505199791    3.11130390229954    9.38284564209668
H         4.67470179843077    3.00760781012612    9.17064039299674
H         5.86134806096614    3.62751924856955   10.33186956012371
H         6.17747779876400    2.12289393005756    9.46755890370287
C         5.89984483598074    5.33885788080033    8.15663456931328
H         5.53908273448737    5.58898495356745    7.15496764109381
H         5.11628107915515    5.56168402642434    8.88591984905780
C         8.08052690658712    5.35821719740480    8.67614613079111
C        12.22844099469639    2.75919048701418    6.31917645090695
H        12.79664036522555    2.74273965153099    5.39134172564294
H        11.75255736900826    1.79209676757226    6.45823095728736
H        12.90385543544439    2.93937066343119    7.15111630550853
C        11.16658138734700    3.84937026788172    6.25556244416169
C        10.13854010857229    3.53628461641511    5.16418591931481
H         9.40671770010410    4.33912124652682    5.09954401276866
H         9.61655037167159    2.61329255737809    5.39724864141525
H        10.63346663730477    3.42951928112999    4.20145385494944
C        11.78101152361369    5.25315927689544    6.04657938316655
H        12.86173666192852    5.26579718722279    6.22281167223813
H        11.57166664705984    5.67333224225501    5.06079109576531
C        10.45509950669712    5.27031254459105    7.84134153713091
C         9.81902541745434    7.50156148380908    9.13360823299066
C         8.85082436993129    8.48667796879837    8.96736519365336
H         7.83490486809504    8.20015197768958    8.74404186980637
C         9.15488727101351    9.83358107675754    9.07996895771665
H         8.37751557852587   10.57383917950789    8.94404599010084
C        10.44669300039677   10.23527783283876    9.36508651961067
H        10.68674871767795   11.28594335368635    9.45349385530965
C        11.42932037286084    9.27496362273328    9.53596301759263
H        12.44398596146664    9.57610064731121    9.75985164180534
C        11.11446484973022    7.93428821131170    9.42083853659415
H        11.89485697425424    7.19862230608690    9.55786150608944
C         8.67724323928694    1.43333266478673    9.82435913586166
C         9.19149828480799    1.47591797178894    7.67593102566910
C        11.20236851832596    1.86145284803896    9.25548737248590
C        11.53336666743021    0.36719348492882    9.27877811541819
H        10.71009071271260   -0.19077497567682    9.72393191043628
H        11.61433532648186    0.06110226538305    8.23234690503130
C        12.82150382575794    0.09975546744237   10.00090131516829
C        12.81970125398337   -0.42536000358098   11.28631946944289
H        11.88182639195973   -0.68536467725640   11.75652776626054
C        14.00825455119271   -0.62638833082663   11.96536031634220
H        13.99346192501619   -1.04035582469130   12.96310743653365
C        15.21329104241373   -0.29626651157233   11.36942548866854
H        16.14116075675143   -0.45115512643497   11.90006920747272
C        15.22351924721278    0.23215857016197   10.08964728557603
H        16.16114670861980    0.49110459783903    9.61962363225057
C        14.03534617094950    0.42839553232680    9.40973795936240
H        14.04593732724955    0.83948318570289    8.41094497149920
N         9.79299472334096    3.91630746577282   10.62065984335795
N         7.83475082340334    4.10105204318850    8.59190253694620
N        10.45551538095308    4.02525347185193    7.52818264909971
O        10.22929199084528    5.90319182638557   11.48532700516211
O         7.03393571904321    6.15229231505306    8.44619348492277
O        11.15200414869982    6.06458962207118    7.03254569776696
O         8.17857102743442    0.51592092709806   10.31368012314401
O         9.00132811063631    0.57311318046203    6.98422291149473
O        12.04193541630799    2.70268991905388    9.43064624644536

