57
CSD_code = ROJWIZ | q = 0 | S = 0 | Stoichiometry = C24H25Cl2FN3RhS | MND = 8
Rh        3.01889692295790    3.08108333445070   10.64672733554067
Cl        4.85787598219264    4.49010665476553   10.41970012333594
Cl        1.85634004733412    4.92225740192912   11.36921826038436
S         4.91627121681146    1.40318290907475   14.60281728255242
N         3.57451590041371    2.58592391037800   12.70933888229499
N         7.06557393706051    2.01470652634969   12.79827796401766
N         5.88923515275733    2.46208273752085   12.34699236083386
H         5.80676798065655    3.12390170981320   11.53935173513082
F        13.10857713017832    0.53726174342489   13.85867985966820
C         2.64536201483345    2.24333366672047   13.66743826932044
C         4.78366197108220    2.23795413373310   13.06570196241632
C         1.27723615742363    2.49541262736929   13.62289894590761
H         0.86678477785272    3.04185003114014   12.78746514735253
C         8.13309281559618    2.33602174435325   12.17657611687574
H         8.10495333249519    2.98244805702585   11.29447633536110
C         3.18522520612538    1.57142700198271   14.77894968062715
C         9.42383205119770    1.86190711356832   12.62035494647734
C         1.32769054791979    2.30243987909236    9.44064201496142
C         1.86261156001744    1.25297253666431   10.22791188647598
C         2.38734753294615    1.13986181075481   15.82306843240083
H         2.82277485681161    0.62564671442005   16.66501354133010
C         9.53770757905981    1.03242216758017   13.74100561583961
H         8.63956356381725    0.75369119848398   14.26810838906041
C         3.24705456012728    1.04896649374624    9.83206450991311
C        10.57854417370718    2.23538394682486   11.92894607123448
H        10.49898483782158    2.87810517472392   11.06474224019519
C         2.39927992186959    2.82898439570914    8.63080226194215
C         0.48570961123199    2.06846710001922   14.66936331714645
H        -0.57490753432174    2.26721003685403   14.64550270189743
C         1.02994863078238    1.39271950385056   15.75722935799041
H         0.38927655348439    1.06855732109986   16.56283020081917
C        10.77241171987457    0.58554485137153   14.16072887290007
H        10.87805961899486   -0.05370300377472   15.02302212234302
C        11.82021086663689    1.79375815299331   12.34106718726335
H        12.72060330098334    2.07486945847903   11.81806784035076
C        11.89901003753377    0.97317323656235   13.45279910647003
C         3.55252518914191    1.97154317197405    8.80731173957910
C        -0.08312166888013    2.78870010502468    9.39731631444863
H        -0.73377754986753    2.15640840620041    9.99530679357335
H        -0.14644366464739    3.80934728468550    9.77680852259245
H        -0.43689498423104    2.78704353320079    8.36655128359874
C         1.10069554948189    0.32537039373041   11.11854818457735
H         1.69482467842558    0.01984948346140   11.97729215497309
H         0.18873681019712    0.78762380907043   11.48604823177108
H         0.83493614855273   -0.57156493876409   10.55527674629959
C         2.24040808208424    3.85342197686146    7.55330597012012
H         1.53682121543548    4.62452961872821    7.85939256686273
H         3.19415675950504    4.32296039844741    7.32372986982492
H         1.86105015353240    3.37581057128921    6.64737329105050
C         4.10723941415247   -0.08104323856333   10.30237715478308
H         5.16353902631252    0.16726711089812   10.22507189022844
H         3.88957064732444   -0.33535294163649   11.33767955015216
H         3.91447466180321   -0.96502386338086    9.69129837149948
C         4.80138150795465    2.05012139075553    7.99278476414674
H         4.54985463411235    1.95545046741504    6.93636699275695
H         5.29873292412577    3.00913235078700    8.13891517381831
H         5.49390592925998    1.25737263082550    8.26256355493324

