56
CSD_code = ROJWUJ | q = 0 | S = 0 | Stoichiometry = C26H21Cl3N4OPt | MND = 4
Pt        0.58766264149201    1.49326184619802    3.55636763873735
Cl        0.95707306312479    2.44140952859271    1.53020778019906
Cl        0.49472514597361   -2.82514506219008   10.61269054872899
Cl        2.66227475773334   -4.21648772653563    8.87858090851848
O        -1.00941495037922    1.22219474521428    6.79135025123770
N         0.53005811986716    0.42070096706991    5.27842883011769
N         2.18624995936533   -0.81446106800085    4.19872629378311
N         2.59781228129797   -0.08035783520221    2.06629463742829
H         2.44327294050702    0.66409242541316    1.38083357423462
N        -1.59059831016396    3.61018659498852    4.24960281605563
C        -0.14080094467137    0.44010617832538    6.47457815677166
C         0.42009148771739   -0.69017261287788    7.28457419118121
C         0.12375813448021   -1.13624215198634    8.55152208546830
H        -0.62971107090965   -0.65717016748293    9.15599490437571
C         0.83227211074986   -2.23616236327634    9.03344654727084
C         1.80798153355709   -2.86135101368905    8.25325705628861
C         2.10479486040961   -2.40584524754505    6.97135049187922
H         2.86050677134520   -2.88891485298019    6.37361898597100
C         1.40038162069046   -1.31709860068582    6.50325546137132
C         1.43979785929293   -0.58652433193873    5.24057182657721
C         1.93225650168503    0.07283017509804    3.18823239251161
C         3.56805873104369   -1.05072510034321    1.73274231674557
C         4.81490790933687   -0.58273701288111    1.30101073100857
C         5.08104180266049    0.89025360368423    1.24166637559190
H         4.45441135072646    1.36713302033043    0.48680944708507
H         6.12108817505843    1.08011718769465    0.99079015104608
H         4.86138300355787    1.36101366176561    2.19914669383810
C         5.78774926481528   -1.50499946612529    0.95191882662188
H         6.75675874466389   -1.15673552889367    0.62629835879873
C         5.52637135354453   -2.86246300848187    1.01925830635592
H         6.29222775873023   -3.57293492530132    0.74676404613771
C         4.28296533001484   -3.30842223848538    1.42397385352657
H         4.07733755084322   -4.36815426600826    1.45730930926236
C         3.28008972020807   -2.41567677913566    1.78171874536039
C         1.92785748783109   -2.91973402318408    2.17417898399168
H         1.83350549112763   -2.92241297905298    3.25982119880683
H         1.77907205497956   -3.93238337847139    1.80792128061042
H         1.14165705138621   -2.27948468222955    1.77678235289404
C        -0.76847980172287    2.82107738575096    4.01758049359612
C        -2.56273435446681    4.52271362788687    4.48222865047403
C        -3.29033930310632    5.01218897685740    3.38786922041081
C        -2.98509406476543    4.52299598215144    2.00884624023832
H        -3.59979876418678    5.03416644537966    1.27320025400850
H        -3.16975103259818    3.45082447409595    1.93557734563399
H        -1.93526084711722    4.68574926219825    1.76505498137264
C        -4.28595281422446    5.94197333678270    3.63917885405804
H        -4.86233917124887    6.33469558893851    2.81497166542092
C        -4.54534653643519    6.36862965982451    4.93110104932688
H        -5.32526827290529    7.09385656051249    5.10843561768314
C        -3.81181446477608    5.87449026626384    5.99613845840795
H        -4.02154051087173    6.21617882454431    6.99863007190067
C        -2.80492656664438    4.94223480248299    5.79678643714967
C        -1.98075487777660    4.40948313880598    6.92196248931999
H        -1.90642004160971    3.32367799614633    6.87741873385955
H        -2.40503188575159    4.69975692889060    7.87906097118260
H        -0.96567398349456    4.80400323111785    6.85986210955357

