69
CSD_code = ROJWAQ | q = 0 | S = 0 | Stoichiometry = C36H22FeN10 | MND = 6
Fe        7.79099278413928    0.00001734224495    0.00002541734309
N         9.53441245565666    0.84628186751325    0.21958832789239
N         7.15256495126462    0.89389291645579    1.61198543893050
N         9.12512279524353    2.12376525404137    2.21034634201906
N         4.91092884810582    0.04040893580805    1.69982572057768
N         8.31351290755093   -1.41085673502270    0.99244947016348
C        10.59546869231844    0.69962070810807   -0.61615308648057
C         9.87289151622422    1.71043037856504    1.21161882597883
C         7.88035554604310    1.74037324811883    2.38603716689139
C         5.90939272313449    0.76967846671662    2.14570446197305
C        11.69928120541641    1.51435701819836   -0.14423277182848
C        12.98209222059747    1.73230018659332   -0.61875378211637
H        13.32645184112653    1.23689063326976   -1.51286737137278
C        13.79238443480540    2.60168477641596    0.09137674609479
H        14.79838430450882    2.79459702244553   -0.25293746076602
C        13.33734499863779    3.23682562519629    1.24500250086910
H        14.00058333533025    3.90831077689783    1.77121923072949
C        12.05640754398653    3.02415402439720    1.72542216569717
H        11.69477232556230    3.51174059416766    2.61698215561089
C        11.23963483225960    2.15673152364741    1.01928949079345
C         7.06731486477615    2.20177932331020    3.49523871814921
C         7.31694003505081    3.05801781417190    4.55479030754761
H         8.28225752307572    3.52694692644831    4.66289788463857
C         6.29040917593576    3.28303694326828    5.45616737682781
H         6.45111076511716    3.94563876745217    6.29452278965153
C         5.04792642022329    2.67088299765456    5.30532632177665
H         4.27158123778962    2.87137274018730    6.02983799569511
C         4.79117126256259    1.81394103953874    4.24874331902498
H         3.83194525124117    1.33626332079804    4.12561495225283
C         5.81325784638384    1.58375642204274    3.34281067328916
C         8.57757246832867   -2.34051585953447    1.61918856960188
C         8.89902001259583   -3.50059474746227    2.39864800419674
H         8.03295920424486   -3.79326300680238    2.99272617244628
H         9.73316852164675   -3.27918911059442    3.06450731509671
H         9.17465992631505   -4.32271505395250    1.73785301359856
N         6.04758992063802   -0.84628266269241   -0.21958873475887
N         8.42943638856112   -0.89389380084985   -1.61198479271522
N         6.45687727272399   -2.12376574830904   -2.21034719956023
N        10.67107395978453   -0.04041010419977   -1.69982541825609
C         4.98653243848721   -0.69962420160539    0.61615325057880
C         5.70911118365165   -1.71043079329456   -1.21161947326906
C         7.70164672981456   -1.74037598552787   -2.38604150482141
C         9.67261072317502   -0.76968122860475   -2.14570934559973
C         3.88272075291501   -1.51436027336740    0.14423125219977
C         2.59990869746630   -1.73230544581870    0.61874843142108
H         2.25554780018431   -1.23689816014801    1.51286255506873
C         1.78961917369282   -2.60168991804658   -0.09138567814501
H         0.78361898340916   -2.79460315684636    0.25292646174900
C         2.24466113874614   -3.23682851983184   -1.24501158932586
H         1.58142452974842   -3.90831333162934   -1.77123069519047
C         3.52559913497616   -3.02415481932164   -1.72542826425036
H         3.88723649681351   -3.51174030315219   -2.61698824046002
C         4.34236813063415   -2.15673270397561   -1.01929160002122
C         8.51468629638517   -2.20178091868116   -3.49524266616879
C         8.26505846548548   -3.05801760402974   -4.55479283790623
H         7.29974101401947   -3.52694691638302   -4.66290240327719
C         9.29158889666289   -3.28303708181419   -5.45617082089418
H         9.13088573252420   -3.94563881945535   -6.29452536644879
C        10.53407139046696   -2.67088341568530   -5.30533146187465
H        11.31041578515420   -2.87137274105905   -6.02984350044415
C        10.79082827914223   -1.81394082607983   -4.24874879420994
H        11.75005473270566   -1.33626252652787   -4.12562423687397
C         9.76874421957456   -1.58375795561781   -3.34281535008767
N         7.26837908468034    1.41108728041667   -0.99204125083818
C         7.00445429618263    2.34033707180403   -1.61948520322390
C         6.68299569331523    3.50055875606255   -2.39870056403894
H         7.54903933030156    3.79332283051311   -2.99274140628423
H         5.84882611953297    3.27927515565358   -3.06455528903493
H         6.40737243124457    4.32258578780018   -1.73775066583150

