55
CSD_code = ROJWAR | q = 0 | S = 0 | Stoichiometry = C24H25ClIrN3S | MND = 8
Ir       11.36605145655311    3.97777712730718    3.89655102907843
S         7.66744133341225    5.81930449445329    5.63442369011188
Cl       12.49771184735701    6.03523860949177    3.92502887050459
N        11.15463823752209    4.18289876626019    5.90957457973767
N         9.59928926424124    5.01856129696361    4.09568677254128
N         9.97806556615653    4.63489192404308    6.34813783318006
C         9.22002819726540    5.07845632007028    5.37432945358072
C        12.11635454936179    3.89205443881962    6.73035232763467
H        13.03213937519765    3.56528580814073    6.25702628868635
C        10.86882838676184    2.58126108967745    2.13493483098607
C        10.95268375901042    1.84459346242918    3.37014426701703
C        12.30584578408475    1.91325622373444    3.83602597461361
C         8.71297255256308    5.63538811967304    3.25939877498994
C        12.11696570829273    3.20399170685410    1.91272448624630
C        12.14696430934429    3.96646634723421    8.17006601080611
C        13.01152973189007    2.80239072541193    2.98285621993795
C         7.56486366445557    6.12392303564232    3.90866334651992
C         8.85924916330674    5.82885347631859    1.88967919938444
H         9.76540342402013    5.50015022943656    1.40781362911627
C        13.43857184385943    3.62768535466732   10.18716666032330
H        14.36202136900254    3.33577706849513   10.66587074334876
C        13.33513106274392    3.58920736165985    8.81287822807015
H        14.17951862349093    3.26926873084901    8.21903832408080
C        12.86685592848035    1.07967476740669    4.94298109649476
H        13.85234360965229    1.42733846877922    5.24230200589896
H        12.21738497639246    1.08585457150513    5.81702361162220
H        12.96120407869248    0.04707285659723    4.60244403860369
C        12.36014131720821    4.04150294529806   10.95498588760336
H        12.44174815180888    4.07191110844910   12.03139582493372
C         6.55829326834550    6.76100982007160    3.20881215775342
H         5.68461367190824    7.12716583320630    3.72382061894820
C        12.56366611031569    3.97353884197989    0.71097444696203
H        11.72558569271868    4.22687574877209    0.06650096352802
H        13.05757199427820    4.89559411571198    1.01317168676319
H        13.27588748285242    3.38106641080655    0.13424853581306
C         7.85409972033343    6.47041146591457    1.19522085558494
H         7.96050229481708    6.62969318267100    0.13272499031996
C        11.06696937210533    4.38253540045690    8.95702562457921
H        10.15044987857650    4.67772050403664    8.47420596947663
C         9.68579529482344    2.53957841664008    1.22239692373455
H         8.77358216835232    2.83897768958281    1.73652159505657
H         9.82263870620383    3.19104471473215    0.36395840939932
H         9.54755554487764    1.51929125513845    0.86105881478608
C        11.18023515449188    4.41745820184444   10.33317710568845
H        10.33918830784528    4.74262780811992   10.92785115980949
C         6.70943486839781    6.92347518435935    1.84281560627783
H         5.93584064721926    7.42052975021478    1.27821952842084
C         9.90601966546529    0.90816276399877    3.88188492518721
H         9.99656577273434    0.77136585794999    4.95734758984879
H         8.90853768577030    1.28297535186085    3.66354955611003
H        10.01324282205985   -0.06866492999583    3.40560500418507
C        14.47418840793904    3.11016660346229    2.98893927315048
H        14.63429098547550    4.18471543237196    2.91569194289207
H        14.95277701197326    2.75322251494583    3.89722681615649
H        14.95612019800259    2.63532562548443    2.13304589391732

