69
CSD_code = ROJZIA | q = 0 | S = 0 | Stoichiometry = C22H42ClO2PPd | MND = 3
Pd        2.11241667527549    8.69350889944757   17.40149724824429
C         2.79300276566115    9.26218018394641   19.27100587134673
H         3.09459940427601    8.32842599319424   19.76462186846096
C         3.96324267985547   10.24299732121375   19.21645646629261
H         4.67607313571561   10.06090518255974   18.40854159327463
C         4.61352842962442   10.23143598363894   20.61168987183285
H         5.53382820725077   10.81694176772348   20.59930524163905
H         4.85504313251575    9.22878784390159   20.96281797043745
C         3.53431614436597   10.91255246938325   21.49404268945701
H         3.16144181085413   10.22771172022821   22.25958690949409
C         2.44800742559640   11.30207485508740   20.47650468109059
H         1.79472643579472   12.09764111449563   20.82843892293274
C         1.71193632402835   10.01164767925565   20.07338141293249
H         1.42344691101945    9.44099445256153   20.96522050499332
C         0.43444250134481   10.29723234401001   19.27128227098477
H        -0.26807329958480   10.86746525548620   19.87742940974739
H        -0.04773964151363    9.35343173900301   18.98208493949247
H         0.66266325704400   10.87399074637706   18.37177027768173
C         3.27988446420701   11.60913645508820   19.23535912195689
H         2.68684993650808   11.79845351349996   18.34638294458841
H         3.97428744349091   12.43130975585731   19.39031451727700
C         4.12137286987971   12.10854144369839   22.20597787253906
O         3.98669855080103   13.26239101733378   21.90004372244262
O         4.85767044696964   11.71080523091791   23.25839827378358
C         5.50561993583431   12.74134331217052   23.99022435759561
H         6.15907387809040   13.31997165060447   23.33396149625148
H         6.08341595102147   12.24752678910822   24.76720385216071
H         4.76754247359705   13.41520715344775   24.43028720827168
Cl        2.43940975312399   10.55891211807579   16.15699550821461
P         1.76888710993933    6.45034417968521   17.65476705463565
C         3.47983566500228    5.56440338567746   17.64512408114145
C         4.49434296728922    6.52264582506103   16.99121740733950
H         5.49321071309102    6.30962219222537   17.36967723060155
H         4.26535922285096    7.57574881809127   17.23130497105362
H         4.53179347350372    6.41071001000447   15.91193613881747
C         3.53193571538673    4.20558385919367   16.94626906030476
H         4.53187868087699    3.78806983913902   17.06601873166254
H         3.34009860903227    4.28612513853052   15.88046065707715
H         2.82436423900666    3.50266247169842   17.37563409275623
C         3.94221214351104    5.37898598412594   19.09456721068666
H         3.35602863670792    4.63210832686169   19.62048722146079
H         3.90071232146354    6.32291734552252   19.63395343542302
H         4.97722330848695    5.03748146066847   19.10058773708783
C         1.00136997404039    6.30507524256174   15.89226529326033
C         2.08588098865009    6.74072855622872   14.89604701160093
H         1.63167886017224    6.91627636502299   13.91992435705030
H         2.85261726858063    5.98381043314614   14.76035132175228
H         2.55238998569233    7.68597375147225   15.21740050385954
C         0.43834591732761    4.94794607472340   15.47456706564930
H        -0.43921039105574    4.67788784147180   16.05595202750550
H         1.17420382087031    4.15494421623604   15.56877648565047
H         0.13383616119439    4.99826274740690   14.42869457776933
C        -0.09805577380040    7.37801066646149   15.77922124432859
H         0.26507626859324    8.35449605529318   16.15572399449749
H        -1.00868898619732    7.11660747465736   16.30757764994458
H        -0.36117838510502    7.51162505255017   14.72919851624623
C         0.60671836478488    5.58359330017577   18.90757742646940
C         0.62433020965028    4.05727944411727   18.89691275854006
H        -0.15691742889308    3.69071331241098   19.56309585446479
H         1.56932589353902    3.65905832504309   19.25424936815659
H         0.42995511666411    3.66023079350311   17.90506197147694
C        -0.82185990446713    6.06787375554528   18.64278632907955
H        -1.45556500032020    5.80791399631957   19.49026400583883
H        -1.25478732628365    5.60400684346128   17.76185369018754
H        -0.84165929509069    7.15240058954260   18.53491607804107
C         0.96933969739645    6.11272100367409   20.30047101657274
H         0.99256791099589    7.20091326394326   20.28483494441325
H         1.92577525620226    5.74929476515928   20.65671088425884
H         0.21129998805528    5.79812330205111   21.01703356794026

