30
CSD_code = ROKBUO | q = 0 | S = 0 | Stoichiometry = C9H14CrO4P2 | MND = 6
Cr        0.17698922094175    8.09486717244981    3.42915206389584
C        -0.57517699498426    7.49403049349756    4.99776766245445
O        -0.96447037589420    7.10127880375980    6.01264647925055
C         0.12654333967986    6.36406389988283    2.76568196350533
O         0.12766888305525    5.25581294208890    2.43494461969311
C         0.26176807532336    9.79072483132080    4.17555117055603
O         0.35064669091551   10.80485700058669    4.72138912720583
C         1.83336552872732    7.74889016600347    4.15304261938755
O         2.83058063022997    7.50338403955907    4.68318079578299
P         0.83537264752855    8.87598047624744    1.25453459137372
C         1.24184217607153   10.62422046209010    0.85193905801004
H         2.28074778134448   10.80735363804988    1.12591873745648
H         0.60966290154122   11.28408295836472    1.44516465216851
H         1.10345249768662   10.82911265601050   -0.21060876621770
C         1.82199428133615    8.02343480092639   -0.04253067773044
H         1.59718718242903    8.42161984772859   -1.03317806504966
H         1.59776565983807    6.95768467304136   -0.00989882296780
H         2.88130214932235    8.15964510604433    0.17423088895991
C        -0.89236720288267    8.73492318074143    0.58081284693006
H        -0.98436736542968    7.79193179233930    0.03281916104595
H        -1.20479312877102    9.56839827919869   -0.05524125593605
P        -1.81816642917562    8.59307051793320    2.18754555912163
C        -2.70946827752707   10.20138023873529    2.23813427576019
H        -3.30029778555107   10.35601938563052    1.33417156973077
H        -1.98600905172929   11.00767401247256    2.35419530152512
H        -3.36673521685861   10.20273410835638    3.10756914780473
C        -3.21101442870454    7.48280209177549    1.72957057813825
H        -3.90826314843722    7.42969508963753    2.56548149187644
H        -2.81724882504132    6.48371337570445    1.54529996211185
H        -3.73061141498326    7.84831395982684    0.84251326416492

