51
CSD_code = ROKDIF | q = 0 | S = 0 | Stoichiometry = C18H28N4Zn | MND = 4
N         1.24272337990205   -1.61893307937967   10.45543807611762
C         2.15641842506465   -2.07707483919862    9.38226046735348
H         2.03629419959737   -3.17151109088576    9.27177786650481
C         1.78018849088577   -1.41850599479921    8.05358797723036
H         1.89171681595377   -0.33484028665082    8.14485573881638
H         2.47229237688487   -1.76110017247843    7.28262441990643
C         0.35020911209709   -1.75166998489547    7.65398965750920
H         0.26341405237952   -2.82278026548452    7.45017962387997
H         0.07800981622192   -1.21232576737529    6.74654131321676
C        -0.57848893259138   -1.36335508259396    8.79487781710873
H        -0.57111410748804   -0.28025925828267    8.90390787477661
H        -1.60124364614383   -1.67499417586713    8.57444069062347
C        -0.12511934659778   -2.03422716964664   10.08978688615846
H        -0.11042638164970   -3.12638859769662    9.90422197836958
C        -1.13714543430867   -1.81733256696452   11.22579992881984
H        -2.11015389427353   -2.15193702909786   10.84799576894055
C        -0.71386447514738   -2.67518592089607   12.41068147223474
H        -1.45793984277942   -2.64433014377126   13.20613967237375
H        -0.59897105849395   -3.71892346209824   12.10950911494784
C         0.62311281130357   -2.10735426065435   12.86782774865474
H         1.01578124536553   -2.69231151079668   13.70704871221481
C         1.63431833932459   -2.25403172407719   11.72571300589567
H         2.57982488947648   -1.81846627582567   12.04950433341504
H         1.78933150877141   -3.33252029229753   11.55885501012969
C         0.45864627730171   -0.66159220704431   13.35890867096239
H         1.45712104707186   -0.26303943848285   13.58090037394827
C        -0.34437581752226   -0.60295513405092   14.66785075802417
H        -1.34421439926311   -1.01791016208116   14.53378789716547
H         0.16903450002343   -1.20764300054775   15.41752095226516
C        -0.47163587926024    0.83788591461275   15.15008447284038
H        -1.05940109319834    0.87768534271084   16.06901377833507
H         0.52013229649899    1.24211525392310   15.36499655510304
C        -1.13092059563062    1.66607179587412   14.05380940207566
H        -2.15227078633675    1.31826742222537   13.88608660375240
H        -1.18351692305101    2.71604442586752   14.34418347521670
C        -0.30340930302526    1.55481168399152   12.77417989796505
H        -0.77022700825833    2.13178956966577   11.97119837817356
H         0.68364980836618    1.98881345439550   12.97252397090742
N        -0.09430826069365    0.18316584473401   12.29110922046806
C        -1.31205161381467   -0.37268373673162   11.70131744219024
H        -1.59539380531343    0.26586367885080   10.86090613929801
H        -2.14622333817353   -0.36356306212553   12.41686382498358
Zn        1.49817855399030    0.58122108131437   10.78776581384220
C         3.62727404463190   -1.79352430959730    9.67770041385272
H         3.78821906782656   -0.73591654176014    9.87893710415371
H         4.21806310181563   -2.06309373045518    8.80523388464960
H         4.00017995013608   -2.37007424223439   10.51883094990107
C         3.09247871357818    0.79620546809324   11.91874720096508
N         3.98368216241567    0.84873558697374   12.64464804697725
C         0.63097267062106    1.76084604568055    9.47687178279277
N         0.05544828553480    2.42563194788658    8.73515783400124

