32
CSD_code = ROKDAW | q = 0 | S = 0 | Stoichiometry = C15H12MoO3Se | MND = 9
Mo        1.28107617097576    0.71498188537620    2.79812279449777
C         2.74443474187790    0.28349148958749    4.57964722931980
H         3.82196316490224    0.18360554780106    4.58433897829698
C         1.81447968791830   -0.77323531926208    4.47744138531739
H         2.05839154235030   -1.82743854909038    4.40618978244992
C         0.51637147266474   -0.24482382781165    4.73894884357565
H        -0.38047051481251   -0.83352480943158    4.89120247291054
C         0.65380089888829    1.13493763584605    4.98922897460331
H        -0.12103837417453    1.79537724157074    5.36036435084586
C         2.02930201314698    1.45605880892426    4.89929926897210
H         2.47115565616350    2.40486597992060    5.17742444182334
C         0.60896459040854   -0.65640016363023    1.60278168396103
O         0.20571507098347   -1.39865251820582    0.82386368693037
C        -0.31210761812918    1.36581125911260    1.88598574293496
O        -1.28644587235055    1.67450637833166    1.37146098438968
C         2.41577438366552    0.58426495973200    1.22717779067773
O         3.04694139895482    0.47105634623735    0.27511762731798
Se        1.88788689925623    3.22874176840730    2.13944038833816
C         3.83039735769162    3.30621645375590    1.68853705749522
H         3.95384977505219    2.85014640568852    0.70571413300119
H         4.02111238212866    4.38010599550217    1.61716568185294
C         4.68817698628097    2.67002474275036    2.72253727658786
C         5.37582949993127    1.48983545442515    2.46081966107161
H         5.29904534925342    1.02778575619491    1.48731274209562
C         6.18126647719781    0.91698837282423    3.43146409482612
H         6.71510051496623    0.00341263946061    3.21285233914863
C         6.30447040799203    1.51137698104536    4.67597145557979
H         6.93132728982796    1.06239323580873    5.43232395363712
C         5.62379064956744    2.68870261413169    4.94559808434972
H         5.72208367715114    3.15978299370518    5.91283415378100
C         4.82466027003372    3.26289201539808    3.97554368759715
H         4.29599405023511    4.18581222589261    4.17498925181057

