39
CSD_code = ROKGUT | q = 0 | S = 0 | Stoichiometry = C20H14N2NiS2 | MND = 4
Ni        0.27051054789339    2.93268419189485    6.18095441854117
S         2.28175228443573    3.66473175651164    5.98161321113489
S         0.91810075895160    1.30980383722014    4.92984397962943
N        -0.29270811968494    4.40614263029640    7.28023936886490
N        -1.52555115519289    2.26444411394674    6.33906073729173
C         2.46840495094163    5.29274855808416    6.47617558321510
C         3.73878523912848    5.86015842089506    6.26423245590568
C         3.99128803296639    7.17377754426050    6.55383683405751
C         2.97930160400893    7.98767030543397    7.07936664122571
C         1.74294594520989    7.45621871129194    7.31741182754956
C         1.45075131678490    6.10039936611432    7.04122999447508
C         0.17284632105605    5.61811761624109    7.40874319170483
C        -1.50792075757772    4.07660402150246    7.89066851113743
C        -2.05137193828670    4.75356415608810    8.98160730087210
C        -3.23468971852651    4.32475528357782    9.55105950286452
C        -3.88006830406047    3.20171894625036    9.05865656396801
C        -3.34557888323422    2.50225724604877    7.99402394415761
C        -2.16585197435913    2.93282940749366    7.38852262600845
C        -2.22087588395606    1.46060671288955    5.58241659824051
C        -1.74180434736351    0.55805642036461    4.60439297850886
C        -2.69253700223164   -0.24834633299530    3.93670171550033
C        -2.31687124789285   -1.20941206471858    3.04066340487785
C        -0.95635848295336   -1.41095259386926    2.77400604873819
C        -0.01075526327392   -0.63974214981689    3.39390830498154
C        -0.36987771261061    0.37212785511574    4.30382877672666
H         4.50699256628216    5.22680410580186    5.84829735113158
H         4.97152703698335    7.58847314298658    6.37199997992491
H         3.18084509747432    9.02493869955657    7.29879575023038
H         0.95935080869462    8.07420898011917    7.73337119065402
H        -0.46883677444263    6.36487387102056    7.87666278820513
H        -1.53027773988345    5.58776412719212    9.42543147705178
H        -3.63817728225427    4.85090538750059   10.40261019185067
H        -4.78744516791317    2.85066483522231    9.52577817818295
H        -3.82724330156995    1.59171565046107    7.67259384780470
H        -3.30263149398370    1.44172793397190    5.71583701677716
H        -3.73971735649393   -0.09330643338315    4.15651486515641
H        -3.05930299936259   -1.81509875015880    2.54402363189675
H        -0.65575700861091   -2.17443415863306    2.07213435705475
H         1.03930740490785   -0.77810135178162    3.18778485389778

