41
CSD_code = ROKGAZ | q = 1 | S = 0 | Stoichiometry = C10H24AuN4S2(1+) | MND = 2
Au        1.38762036224628   13.47098880465923   20.52964364387658
S         0.86012220797743   11.89001716965572   22.17794680011890
S         1.91875495005657   15.09678681248679   18.92748662668616
N         0.44317199013309   16.67780077832818   17.44149550475474
H        -0.42332031402783   16.91448992095543   16.97980533114884
C         4.76576316769405   10.85234788366939   22.26502018383791
H         5.07170545104696   11.15967782546294   23.27208049948001
H         4.72737172607931    9.75717503001642   22.22485956106571
N         2.34382259489037   10.35114966736065   23.69900763209207
H         3.19670265165236    9.84728490936060   23.89538568434091
N         3.44936651259007   11.39417008680847   21.96874763537808
H         3.38866778121866   12.04552765816615   21.19470574242125
C         2.14250424625421   16.78052259724792   15.66498671910347
H         3.01794706082419   17.33183178034794   15.33686259031643
H         1.38584042244829   16.83740973273802   14.88605267210890
H         2.42310915477360   15.74044443607728   15.80976525221502
N        -0.69971329497883   15.02432345034789   18.56528573945505
H        -0.64843051084159   14.25772785101663   19.22626332051199
C         2.32615755485403   11.15925360432209   22.64593450625808
C         0.54147055187127    8.69054394127313   23.93401852086361
H        -0.31487268117318    8.42655071832791   24.54638463490716
H         1.24720158630193    7.86348595310257   23.95126934639255
H         0.20199620170012    8.84442623164747   22.91302771912570
C         1.18178586540149    9.96303672624971   24.47546445437442
H         1.51060254794513    9.81564284733703   25.50589451536571
H         0.46435283583951   10.78444227675038   24.44684863641647
C         5.76487034806090   11.36627894676832   21.24199695976225
H         6.74822692773146   10.95561399048728   21.45112126511973
H         5.83178389332468   12.45097976214423   21.28097303268488
H         5.47491359927523   11.06445650238187   20.23830784371930
C         1.62469869896085   17.37428062895811   16.96951382212056
H         1.35390515219822   18.42260687554121   16.83047368790410
H         2.39119818338193   17.30646970487479   17.74273289843318
C        -3.04932132437356   14.42534173024295   18.66398290358540
H        -4.03933281631016   14.68344500308998   18.30011580245645
H        -3.05677568852332   14.48844823297456   19.74957124056638
H        -2.83299241233417   13.40112465545372   18.36951201078006
C        -2.02252291311035   15.37971443609693   18.07773607120521
H        -2.03834629681648   15.31200702785869   16.98330183318046
H        -2.25902996182197   16.40882093488795   18.37273962608043
C         0.44532398761302   15.63505287453326   18.26327752977898

