75
CSD_code = ROKGUU | q = 0 | S = 0 | Stoichiometry = C37H32Cl2N2PtSi | MND = 5
Pt        2.07804062019858    5.45855375123637    2.21153614557137
Cl        5.45302954244860   -0.54688906367300    3.25482286191727
Cl       -1.57969839660556   11.58799177430729    2.24221209986605
Si        2.80640512630040    5.97210162455995    5.15268837651418
N         3.38609402960987    4.50073447558355    0.97532109151610
C         3.81777906779579    4.92796188275799   -0.20548511852601
C         3.38671257467466    6.07293258380488   -0.86075665009432
H         3.81644813700528    6.23850057746806   -1.83698695389120
C         2.49281413460069    7.05548900599922   -0.42979815444740
N         1.92362197498866    7.06565418201230    0.75326759733277
C         4.88932978643972    4.12974569307361   -0.91099915409134
H         5.65377426488704    3.80882201065817   -0.20547854368551
H         5.35591482459496    4.72391099711936   -1.69157309243902
H         4.46412931650503    3.23864917820421   -1.36981429024992
C         2.20728425050695    8.18440000008727   -1.38983392947671
H         1.13308251460915    8.29334990630759   -1.53475028426617
H         2.67620743886102    8.00809669265710   -2.35329186633817
H         2.58007693983084    9.12509087909900   -0.98525604417037
C         3.92554712941707    3.29355925191675    1.47434355351938
C         4.81727717075489    3.31603563182157    2.54661225279239
H         5.12075380779129    4.26578306347284    2.96245804522500
C         5.29056045709962    2.13968883576965    3.09160300219429
H         5.96509635279121    2.16234831142057    3.93270859882654
C         4.88497274972406    0.92798750382296    2.55588905397663
C         4.02536672296583    0.88371531599312    1.47128104497498
H         3.72027260129351   -0.06625984034352    1.06111018456496
C         3.55317172192489    2.06443447753257    0.93189926447023
H         2.86062801169741    2.03705450459007    0.10300192572355
C         1.09468363504499    8.14960043333105    1.07933647988026
C        -0.28232785671259    8.08171819932716    0.86497509391151
H        -0.70134734555446    7.19195962627612    0.41586382103349
C        -1.10457697340143    9.13366566753154    1.22065080089221
H        -2.16880626467986    9.07616257721792    1.05321606375862
C        -0.55231908089852   10.26761413417839    1.79397964223167
C         0.81342522410987   10.35865611111864    2.01036888538745
H         1.23223182365873   11.24793673495856    2.45479632706820
C         1.63110765125187    9.30547438817413    1.64959390901449
H         2.69818657694234    9.36895266737200    1.81250493221552
C         0.44516350437832    6.10904037462665    3.46162509328805
H        -0.31992709787236    6.68068278987306    2.94282191448140
H         0.06623231540748    5.24826233354018    4.00581479766856
C         1.61139982765313    6.73947272410932    3.87278444158439
H         1.72873057425384    7.78793788375291    3.60457688717488
C         2.36265599410365    6.50300611758742    6.91043214373896
C         1.44186251260039    5.77933281611761    7.66236728135250
H         0.97617161643352    4.90651227320994    7.22860592157347
C         1.11945279725998    6.15907112398677    8.95254969345489
H         0.40455642182874    5.58315189535677    9.52255957331709
C         1.71292592902157    7.27687767286121    9.51466689567766
H         1.46430719366339    7.57450318012526   10.52297788465755
C         2.62520521316270    8.01285009172233    8.77717960035380
H         3.08842225986603    8.88817154249923    9.20965938559602
C         2.94383756508221    7.62759313636156    7.48772876053021
H         3.65614203747470    8.20596868957664    6.91750028142900
C         4.55717294077198    6.52215402239775    4.66669691285999
C         4.83713184029474    6.85709888548586    3.34332038104907
H         4.03605824930913    6.82808349472260    2.60357074217035
C         6.11354981050314    7.21473231028274    2.94946093338204
H         6.30976096061274    7.46694997409989    1.91690561544978
C         7.14012693761776    7.24552066318140    3.87934658535641
H         8.13834605537393    7.52640719152338    3.57649089715172
C         6.88170542306651    6.90994721995450    5.19803356929141
H         7.68061086302547    6.92781075431688    5.92532690307764
C         5.60303247317141    6.54853286535179    5.58421936668871
H         5.40787421330571    6.28213620096603    6.61276305137246
C         2.52862184965051    4.13895513226531    4.79348616025208
C         2.62237917701591    3.09500671554189    5.70688735221403
H         3.00239404213061    3.28875073519711    6.70046743578471
C         2.22177293657636    1.81965427147592    5.35376924082101
H         2.30395682382628    1.00750639841097    6.06158583012797
C         1.68573769949802    1.59280003160427    4.09722478781736
H         1.33016873304360    0.60727277755201    3.83146389449601
C         1.60865283222035    2.62385000146102    3.17451473696486
H         1.18796862667668    2.42444420559579    2.19595111369474
C         2.07288858551845    3.89166775653404    3.49344696142369

