56
CSD_code = ROKHAB | q = 0 | S = 0 | Stoichiometry = C23H26Cl2N2OPtSi | MND = 4
Pt       10.25589085942566    1.86651978151592    4.80068294158619
Cl        4.45830258602274    1.10095978431240    8.82853764816567
Cl       14.87416691832891    1.46046414415475   -0.31438063893374
Si        7.45377761917115    0.79146297705752    3.59351526537635
N         9.99281349772976    1.41893792919499    6.74565463694597
C        10.95379332345360    1.22715458057514    7.64596877850016
C        12.31206818818880    1.11359006983928    7.37359502696270
H        12.95160227848524    0.94933557966063    8.22738297189900
C        12.95739045911818    1.12211262419089    6.13657972324992
N        12.31799850143669    1.32803993992389    5.00849883157162
C         8.66773652350150    1.35288306079270    7.24407125047447
C         8.01118796943307    0.12749469433963    7.31410249498764
H         8.52042672838147   -0.76472621426617    6.98246166526228
C         6.71896596674144    0.04650431728859    7.79817126714886
H         6.21267567802656   -0.90488824008809    7.84786167819272
C         6.07711335536809    1.19759493103278    8.22562546588847
C         6.71715350714464    2.42575301429652    8.17278179668095
H         6.20791252952068    3.31534431683287    8.50840349328080
C         8.00908145135725    2.49901191738650    7.68847177318500
H         8.51594992807809    3.45262316676432    7.63881057246637
C        10.55708494735083    1.07742670099703    9.09513206562706
H         9.96364756048517    1.93070622090897    9.42005238073493
H        11.43441460831584    1.00046749279578    9.73039364851848
H         9.94902178324457    0.18396861329445    9.23281460367577
C        14.43393671535347    0.81491262714688    6.15335043182676
H        14.76618244865404    0.41264799148601    5.19929568352903
H        14.65528325513818    0.09603917049644    6.93835757016977
H        15.00079501117769    1.72157052056873    6.36143002739671
C        12.97801396922343    1.34829204444119    3.77339514152132
C        12.55516206036182    0.47402483273563    2.76761419622467
H        11.76618513357190   -0.23401709507190    2.98502259403137
C        13.13543401575432    0.50395383221391    1.51542706912695
H        12.80584377928536   -0.17373019769982    0.74382844596921
C        14.14591183035439    1.41607480868483    1.25355514326751
C        14.57419314551720    2.29752884985130    2.23375987273260
H        15.35179968932500    3.01206742820421    2.01398814189951
C        13.99814189272573    2.25796439852562    3.48809187937811
H        14.31277945990690    2.96010225785512    4.24527862877560
C        10.47658102447570    2.46259636185419    3.06224593319136
O        10.57736175598744    2.93464684478960    2.02573929015944
C         8.23951049002777    2.32821513232925    4.41217090677202
H         7.71140155546973    2.59428090528802    5.32546819060808
H         8.14382180707564    3.18886827873003    3.74400538343458
C         8.54065570768141   -0.76218694031307    3.93523150052849
H         8.03707604968253   -1.47017664418064    4.58513549584074
H         9.48527539095791   -0.47613227512748    4.41685908857196
H         8.78260196084882   -1.28442127554448    3.01483482362048
C         7.34846953072054    1.02192893384200    1.70092207685520
H         6.91846421976445    0.14813051901110    1.22211630679596
H         8.33034807337347    1.18553209124231    1.26736728436932
H         6.73123873057549    1.87674477451934    1.44523799531086
C         5.72518427063826    0.49691961077517    4.30926001958519
H         5.66165429248648    0.38349483754229    5.38521117524985
C         4.60169349804098    0.43512028883076    3.61267926230576
H         4.59463174253564    0.54364262775800    2.54105123407939
H         3.63889072504727    0.27342305642914    4.07407986551222

