88
CSD_code = ROKHIJ | q = 0 | S = 0 | Stoichiometry = C31H51N3PSiV | MND = 4
V         2.45606242666685    7.84781632504675    8.26931998497809
P         0.51915681159569    6.55708734118778    8.16803694969047
Si        5.44063734602578    9.45746172549637    5.73189340748963
N         3.26508388481150    6.47756836939042    8.62271358009825
N         2.65671081617580    9.02458818353837    9.51659345341051
N         2.60142062714228    8.45175288787286    6.75025980936119
C         0.20501570040841    5.55722286665728    9.67858875608291
C         0.64169405638062    5.21887815729704    6.92478260788846
C        -1.18996525184017    7.15727876863792    7.81038346571755
C         3.93776641712877    5.33152043299145    8.75541086950519
C         4.18361408171034    4.79522123081574   10.04850746037759
C         4.82752058686194    3.57973201338631   10.18379088906821
C         5.24949343539904    2.86641559228791    9.07471462798505
C         5.03355057330975    3.38577714881293    7.80929204947715
C         4.39419442210537    4.59826466515007    7.62597144606908
C         3.74601744377866    5.55247722555193   11.27064044447131
C         4.19119453591734    5.13251044867265    6.23823149623253
C         2.80493061138767    9.64560122955853   10.58614167910702
C         1.52940478342817    9.93693491017223   11.41942437527169
C         1.39075183758862    8.85831010058465   12.50454243715732
C         0.30986977018627    9.82137759731361   10.49058581345299
C         1.47775944534464   11.33054948627151   12.04954213005821
C         4.21829107133089   10.08163788011878   11.02629419307811
C         5.23800858517222    9.28178154981249   10.20251082846194
C         4.52271859099590    9.81512669653723   12.50356997562973
C         4.42105510657603   11.56939217085845   10.70104796707768
C         2.80379196074343    8.45934944487394    5.44494528062211
C         3.95283468354801    8.81360686138790    4.80216132959400
C         6.18826947615086    8.12799267975366    6.88771038724235
C         6.77217642217780   10.00155984394654    4.47505561263871
C         4.92210362396795   10.98033979491728    6.77467156373605
C         1.61685270187758    8.03265541791498    4.64776802131675
C         1.72568224796583    7.03435343331780    3.68448164228944
C         0.61232808649794    6.62942613381899    2.96966186308009
C        -0.61931657202222    7.22005198812444    3.20125212653298
C        -0.73397310625079    8.21889201145973    4.15443860640630
C         0.37512826965515    8.61720576164567    4.87982267609829
H         1.11357365047943    5.00506317469766    9.91681317183484
H        -0.04080677149973    6.20891795198588   10.51748700546730
H        -0.61619889085676    4.85812872563582    9.51280833635929
H         1.52364256880264    4.62043123843765    7.14956604630191
H        -0.25059653521760    4.59027940399224    6.94833928858021
H         0.75669601056731    5.65712763443948    5.93342541512795
H        -1.20562519945633    7.58786582404729    6.81005180763555
H        -1.90045234315791    6.33121077340363    7.85743445827353
H        -1.48260070475088    7.92444006234800    8.52701336778341
H         5.00299812849665    3.18579173127672   11.17608107279805
H         5.74903696274568    1.91663334734642    9.19636543793987
H         5.37163085957052    2.83689193940288    6.94048308050154
H         3.29854803582526    6.50314254401721   10.97489377269106
H         3.01915725336780    4.97620231552957   11.84555171440760
H         4.60043415307926    5.74748972383090   11.91893708511095
H         3.61227508465837    4.43031057366985    5.63639603048835
H         3.67716026259270    6.09376379278196    6.27515793434664
H         5.15423411860531    5.27118988893221    5.74812190582179
H         0.40105321624740    8.91569835976117   12.95669155782298
H         1.51426282018979    7.86772172120108   12.06782895034645
H         2.12680900125026    8.98041915009169   13.29204463365304
H        -0.60288442778469   10.04487589887890   11.04146703872051
H         0.39562221779544   10.52020939816627    9.65843706254629
H         0.23368040651890    8.81001356235642   10.08682961435772
H         0.52434212400127   11.45236511872546   12.56328145284115
H         2.26349745693506   11.48838702381441   12.78045519911583
H         1.54720587375894   12.09872438556937   11.28296551758611
H         5.10793972257112    9.48019590120687    9.14162627808580
H         6.24901701287255    9.56049266912282   10.49391984129091
H         5.11140232895106    8.21129603762034   10.36198307697951
H         4.40071536383335    8.75861395850243   12.73181650263517
H         5.55961349444165   10.08339903191385   12.70142334241009
H         3.90220805925757   10.39774248368951   13.17742947013127
H         3.87760778012051   12.21667678296461   11.38182730066226
H         5.47880616163918   11.81494902440008   10.77807524479558
H         4.09674427484861   11.77814000528401    9.68389471249984
H         3.94077457233830    8.77167458721434    3.72128131024271
H         6.95378665658023    8.53782541251853    7.54081077090582
H         5.40276196698000    7.69739377902011    7.51083799086597
H         6.64519267183532    7.32242423119817    6.32016631178393
H         7.09508696001930    9.16940501198523    3.85886523564493
H         6.40112708013399   10.77621393955580    3.81257079950127
H         7.64820712656736   10.39356231522167    4.98041812872230
H         4.64871185816716   11.81960778522154    6.14113922236290
H         4.04980996846288   10.71820298259799    7.37252955835248
H         5.70873256344165   11.31602329045232    7.44437913150922
H         2.68670454406147    6.57385800001943    3.50683755061195
H         0.70405776431216    5.84949684959656    2.22705080364192
H        -1.48635220691235    6.90599772827401    2.63833356888825
H        -1.69211601344553    8.69056580261597    4.32742955153330
H         0.29562944623342    9.40222875028743    5.62196653073735

