76
CSD_code = ROKHOP | q = 0 | S = 0 | Stoichiometry = C28H44N2PV | MND = 5
V         2.10387599221943    4.18778742882129    3.62370527819359
P         2.69316263437195    3.72154852298365    1.33609332848483
N         2.78022474394987    5.64814162956999    3.46251214219811
N         2.83781706984539    3.37780632155818    4.94258829911356
C         3.36046642435398    6.83772179625762    3.31253080850524
C         4.74945878236824    7.01315193801848    3.54795132415114
C         5.33348881335576    8.24848853988306    3.33561133949313
C         4.58829209078492    9.33101325367388    2.90074690270124
C         3.22743233237144    9.17875774541005    2.68747947122375
C         2.60426190955374    7.96271290836617    2.88670397522577
C         5.57565910548386    5.85896080916848    4.03617788217377
C         1.12726599737605    7.81125161593936    2.68597308082967
C         0.19979125485825    4.45723276473351    4.30825069317398
C         0.10956507259934    3.99979393704237    2.96783361098112
C        -0.02029295029426    2.60083499533315    2.63696668801142
C        -0.65664250120776    2.19431580387688    1.45200005584227
C        -0.74398040765312    0.86350223262778    1.10076745467323
C        -0.19553135185979   -0.11517998057306    1.91746163934660
C         0.42788048946358    0.26114034648592    3.09787230993250
C         0.50963240079898    1.59038510958552    3.46089336834716
C         3.54373430130018    3.03245720455273    5.91253017320502
C         3.16104479105516    3.59176953654695    7.30074432176953
C         2.86726060441674    5.09159904140697    7.12772846921923
C         1.87201599821198    2.87614638478057    7.73469791152732
C         4.19710862279490    3.46601014079673    8.41824094108475
C         4.65355489706852    1.98669940543478    5.67073947412106
C         4.29293449656726    0.67703046045517    6.38507002946835
C         6.04392325612877    2.47233308750776    6.09935599986028
C         4.71191212538190    1.68381717017893    4.16508979799920
C         2.81195622819032    2.03050787543386    0.61172766735223
C         4.38512889296026    4.32446386287595    0.92477641317064
C         1.78581224330725    4.58047756450159   -0.01375655898286
H         6.39342814229881    8.36455802939648    3.51781610923630
H         5.06134656263859   10.28767601546894    2.73635909004722
H         2.63925450176962   10.02496054528427    2.35891630227912
H         6.28562802411362    5.53954365949644    3.27208324909810
H         6.14633270046962    6.15324638403696    4.91701249528077
H         4.91469496093690    5.02572278040339    4.28481010298738
H         0.61260255935155    7.90794286543486    3.64384959525319
H         0.74408395657335    8.57404381206835    2.01116847605321
H         0.90615346393300    6.81916761146186    2.28957881191038
H        -0.10090869028269    3.76369247864510    5.09531845742726
H        -0.15879748515453    5.46831087633354    4.50014269127736
H        -0.29279757896131    4.68722804946033    2.22183851095940
H         0.98578748153397    1.84967877343650    4.40075194170627
H         0.84797122186149   -0.49762405755382    3.74566360200164
H        -1.24700429648452    0.58147556936040    0.18555715770221
H        -0.26295834350119   -1.15737993329444    1.64221201931415
H        -1.10353525113166    2.94500181406477    0.81070197034769
H         2.13349690322450    5.25426591178467    6.33706805228687
H         2.48906892218394    5.50595766708332    8.06010653948443
H         3.77702411845682    5.62323855723186    6.85393669353072
H         1.50677514923283    3.29774732151484    8.66927193306725
H         1.10135672164165    3.00209843498369    6.97728764190369
H         2.04453930735123    1.81223437488109    7.88296629986661
H         4.45525441918226    2.43553072047996    8.64194847403688
H         5.09906438148275    4.02108210049458    8.17818060346561
H         3.77542503895319    3.89850422393288    9.32502198570272
H         5.03374466091449   -0.08382326432096    6.14406967968089
H         4.26835754985933    0.79037968868828    7.46418546400235
H         3.31867823332468    0.32246038727035    6.05339094697692
H         6.80373200388171    1.86060536773582    5.61529545267639
H         6.19683960710140    3.50505667872165    5.79583034405603
H         6.19312016934367    2.39151239401550    7.16979200196007
H         3.75100907978784    1.30963594449109    3.81087876574099
H         4.95903055312727    2.58774973378340    3.60743148953903
H         5.47035418602727    0.92770990472804    3.96814291027338
H         1.83568595292137    1.54953481619512    0.62832500752022
H         3.17241716365872    2.08357296992488   -0.41605283048588
H         3.50397218918154    1.43523815388729    1.20689495672695
H         4.60363605573308    4.18001243804177   -0.13446347315364
H         4.44369763157959    5.38365745545599    1.17276513897269
H         5.11934235363441    3.78658763354203    1.52295915295996
H         2.27410054723158    4.40227689959751   -0.97270617856593
H         0.76107488090147    4.21836082137448   -0.05976578759864
H         1.77970592992204    5.64908793743384    0.19979386041270

