20
CSD_code = ROKJUW | q = -1 | S = 0 | Stoichiometry = C6H7Cl5NTi(1-) | MND = 6
Ti        0.00000000005128    3.04908954243008    7.38720054372269
Cl       -0.00000000002593    3.35261981666499    5.22316192557931
Cl        1.61490047948773    4.60312575774701    7.82066223371093
Cl        1.61546752336509    1.43611136554265    7.37955580336558
N        -0.00000000003737    2.74157876425874    9.59156484757875
C        -0.00000000001407    1.51580967552143   10.11226746938150
H        -0.00000000001407    0.69236854182371    9.40655641356652
C         0.00000000000458    1.28283057951797   11.47584695097204
H         0.00000000000966    0.26889975457987   11.84641301492771
C         0.00000000000333    2.35735297124520   12.35981349266595
C         0.00000000000004    2.13810347984007   13.83972136133749
H        -0.00000000000114    3.08467170895732   14.37389501643595
H         0.87986882160915    1.56757895004309   14.13376176139903
C         0.00000000000468    3.62989892463310   11.80364413602924
H         0.00000000000959    4.50647146640773   12.43369905811341
C        -0.00000000001404    3.77731219847454   10.42619694333594
H        -0.00000000001418    4.76246042898038    9.97275922937869
Cl       -1.61490047946932    4.60312575766700    7.82066223371315
Cl       -1.61546752334416    1.43611136562165    7.37955580339088
H        -0.87986882161080    1.56757895004348   14.13376176139528

