24
CSD_code = ROKMOT | q = 0 | S = 0 | Stoichiometry = C11H9FeNO2 | MND = 8
Fe        1.38347590900733    7.99152903209383    3.63361320979717
O         0.17319671624147   10.61609688514621    3.66042593303061
O         2.45774205492234    8.87391922102645    1.09967323071815
N        -0.15883699235957    7.19236651907101    2.78904618467243
C         0.62743504683917    9.56800362629791    3.68160182445827
C         2.04898809235460    8.48733819125735    2.09402019011829
C        -1.44404139150078    7.29499840054483    3.20818931984710
C        -2.22239684498270    6.38749376211974    2.53208458025544
C        -1.36725187417168    5.70353154001414    1.65074958360923
C        -0.11205567002838    6.22969023750086    1.83525280406934
C         1.32912801114121    7.24097318581516    5.81708529173169
C         1.51305241160520    6.07953560512784    5.03697073930236
C         2.70983298645519    6.22542176969968    4.30407943649389
C         3.30688704115908    7.45995641670021    4.68052633789412
C         2.45409579808418    8.08689091050957    5.61562862647636
H        -1.72590899585077    8.00957421964696    3.96086323460265
H        -3.27763318197876    6.23698488706647    2.65498690423785
H        -1.63649605152888    4.92405483308187    0.96424802653395
H         0.81203516015772    5.98034270698887    1.34442680380760
H         0.55822162331745    7.38651230788549    6.55520322594845
H         0.86372966126536    5.22006589069954    5.02129414409482
H         3.16994400730997    5.46587033023911    3.69434361861178
H         4.29442353977212    7.79133751490703    4.40332057023706
H         2.67713294276878    8.98081200655975    6.17516617945166

