33
CSD_code = ROKMIN | q = 1 | S = 0 | Stoichiometry = C2H12CoN14O4(1+) | MND = 6
Co        0.61611138545366   -2.23630284442858    7.92019699515831
N         1.74903157555146   -1.37238209369103    6.55021710743403
N        -0.49032917835117   -3.01525448965222    9.36160686990986
N        -0.91948592532732   -2.50182076198056    6.58242209244470
N         1.49311635822484   -4.04549983179378    7.50205736776299
N        -0.11387265732280   -0.61029240490487    8.31193921470221
N        -1.14712091194548   -0.42300332395075    9.10397393762871
N        -1.41471791998570    0.83159978926193    9.13516932007850
N        -0.45060112073997    2.81881557420070    8.02090843032755
N         0.30555270872571    0.51696439284115    7.80029754116837
N         1.94313873327992   -1.96835242275530    9.14410831086324
N         1.83355033421004   -2.17564893183207   10.43674281334930
N         2.96214081351642   -1.91610291553170   10.98912468379764
N         5.16632737529400   -1.19232023607905   10.12624412608234
N         3.15117176997919   -1.58063944956792    8.82314052241842
C        -0.51716838790371    1.41765554580606    8.33269330420661
C         3.77987216788396   -1.54512599598534    9.99596102857127
O         0.20526455745918    3.09826252042811    7.04509122894672
O        -1.05102119545223    3.56991357996694    8.73893085623968
O         5.57881607849901   -0.98019960842087   11.23286988388080
O         5.78649961763484   -1.15456072187023    9.08877482437062
H         1.46866157937022   -0.38548704965049    6.46768591655303
H         1.79912751460868   -1.75911237993108    5.60809064323926
H         2.71065824210790   -1.32340635678384    6.91429975957272
H         0.08633403232439   -3.07607963902059   10.21236374620124
H        -0.94548343789326   -3.91764467708728    9.22888758734218
H        -1.21959578749177   -2.33181203453322    9.60802236771589
H        -1.80277613532548   -2.21802192405566    7.00903583406152
H        -0.82086037048973   -1.91341144521663    5.75485124644263
H        -1.06874650321600   -3.44959679886303    6.23949835149657
H         2.49530438687523   -3.91819115062873    7.35275994567149
H         1.41974994561563   -4.70026012281479    8.28091130193906
H         1.15135035482882   -4.54258179147387    6.68092284042315

