114
CSD_code = ROKSIV | q = 0 | S = 0 | Stoichiometry = C61H45ClN2OP2RuS | MND = 6
Ru        2.41377536636666   11.20159688029736   13.78858890100165
Cl        4.02140484991711   11.56165735367333   15.49112168739195
P         2.41340556069917   13.52778196688951   13.52056398195969
P         2.58441375696161    8.91650845386917   14.19153848357726
C         3.80903645275571   11.09528803139891   12.27599362708196
H         4.75189330544497   10.57826882804612   12.48724581666265
C         3.68866391512384   11.66752836367413   11.07178450629442
H         2.73823752897971   12.13026540811522   10.83423220710031
C         4.69794302570553   11.77211122533998   10.02958089884688
C         6.04102348377425   11.50199222471653   10.31225979333538
H         6.31343051351101   11.17037353636027   11.30299868753064
C         7.03345759670117   11.66111319078660    9.37554315328251
H         8.06113635029591   11.44444053061786    9.63297090411253
C         6.73680380788665   12.11845701589798    8.08989882801587
C         7.75011683955150   12.31320314720502    7.11049828935665
H         8.77187456350898   12.09223130109946    7.38740974930217
C         7.45152019813353   12.76147429301582    5.86919086214899
H         8.22688024976785   12.90810722885931    5.13025049730332
C         6.10620080202473   13.05103249824170    5.50049340477918
C         5.77517824465371   13.51493422617713    4.22595877999265
H         6.56205235219923   13.65998827446763    3.49916261108156
C         4.46202134878396   13.78677246801003    3.88967987640596
H         4.22551481901696   14.14520627994311    2.89783016449209
C         3.45019409985150   13.59979040563010    4.81229587970292
H         2.42400739828780   13.80879969741438    4.54436406051703
C         3.73617268097919   13.13702264718524    6.09803579036171
C         2.72231728839391   12.91480866254484    7.07018365716291
H         1.69512383280163   13.10247698409739    6.78927890941590
C         3.01875072303254   12.46979155663207    8.31400010411680
H         2.20955303765114   12.29630494673734    9.00578544997262
C         4.35940498603851   12.21108113313282    8.72551244888489
C         5.38642221982811   12.39621907466440    7.76169728955325
C         5.07739316696420   12.86040646532729    6.45763440845707
N         1.16385736612836   11.44011411530827   15.58616721106920
S         1.92504715254974   11.37442145138736   17.02133002145309
N         0.66761425586080   11.66856423916690   17.95071398958613
C        -0.41659763164504   11.85912296178979   17.19600193198284
C        -1.71542996334955   12.17640788540087   17.62047918334738
H        -1.91440693675842   12.29585752366888   18.67333775340287
C        -2.69237161317993   12.31494692573999   16.67231833423863
H        -3.70126991660779   12.55622776374322   16.97296702897587
C        -2.41813431026278   12.14058971470834   15.30376472543945
H        -3.22351269406933   12.25036446251827   14.59263405284206
C        -1.16038710978141   11.83328586557234   14.85826816487166
H        -0.94839795532253   11.68584659045457   13.81024419383063
C        -0.13461818974748   11.70079103978387   15.80201217311041
C         1.11106814591196   10.86216816901963   12.55462062994993
O         0.32549594103175   10.57361703018481   11.76019573006582
C         1.41446615130770   14.33630064211440   14.82077582625354
C         1.96712633860216   14.34522255162013   16.10316383422768
H         2.98175112992833   13.99492730025607   16.24826982167564
C         1.23374669073262   14.80508171670865   17.17955329621192
H         1.66727752923773   14.79500460875786   18.16875914783472
C        -0.05978764074177   15.26515765258301   16.99018733010541
H        -0.63853057219594   15.61313141790701   17.83260553440867
C        -0.60500264290375   15.28204354488114   15.71845638040212
H        -1.60821243839700   15.65232566174201   15.56517567510431
C         0.12360801080704   14.81656361215547   14.63698873450883
H        -0.31266024086819   14.84211668623922   13.64960556258237
C         3.96892937205594   14.46315671010758   13.70019880940119
C         3.92504813615217   15.81355985535039   14.04311327685789
H         2.97216835211770   16.29431387804542   14.22073973134201
C         5.09708304890386   16.53671209058428   14.15583269548350
H         5.05774496898047   17.58186997331499   14.42686545377609
C         6.31889794732551   15.92474345722771   13.92232120907163
H         7.23264334457028   16.49318917747771   14.01535141751970
C         6.36531258444967   14.58709321123824   13.56948739706840
H         7.31528946973546   14.10866358508322   13.38270039344880
C         5.19482981264793   13.85776938678101   13.45746521771324
H         5.22321707520884   12.81315006902368   13.18588042149834
C         1.76509343410036   14.20763782367574   11.95623302878537
C         2.53782799413787   15.00448279025587   11.11737119046857
H         3.54103295131416   15.28135790123192   11.40577901510371
C         2.03470864690542   15.42594361909069    9.89917744521162
H         2.64817612246109   16.03238919531004    9.24955209124393
C         0.75825699972959   15.06237798602398    9.50600673535531
H         0.37115152133624   15.39119663663342    8.55324944889533
C        -0.01430186096063   14.26043090463266   10.33062718611404
H        -1.00512943044323   13.95956861516483   10.02251365311385
C         0.49006037318228   13.82705902266179   11.54228225998829
H        -0.09825384763818   13.17006272122262   12.16807788061143
C         4.14268771726203    8.01890780969635   14.52452625491930
C         5.37298541888517    8.66094604384816   14.56792248761968
H         5.42875102620688    9.73148988913235   14.44411493996875
C         6.52786627514792    7.93419982917164   14.80485243527072
H         7.48066538370050    8.44171508949377   14.84039560224004
C         6.46256371324194    6.56627857046554   14.99950344517308
H         7.36396535265183    6.00057260619035   15.18414416104203
C         5.23559010460596    5.92099837689348   14.96117150407084
H         5.18042894549501    4.85334172059536   15.11697702950892
C         4.08137110000857    6.64014856529574   14.72221706047202
H         3.12632825168023    6.13458821840982   14.69083295640213
C         1.91086166015115    7.83761374804418   12.88291530384033
C         2.31390731165318    8.12309996471207   11.58091417940795
H         2.95495049915706    8.97894798244190   11.40334098361013
C         1.88493335092292    7.33666482955313   10.52879280838957
H         2.19813302401398    7.56974994932816    9.52198702824910
C         1.05005073282508    6.25684666517553   10.76741099365483
H         0.70865108715662    5.64392941319777    9.94634245279448
C         0.64984117468081    5.96581271629356   12.06047679377776
H        -0.00204380463621    5.12492138722920   12.24907162609067
C         1.07941579189558    6.74817851129728   13.11826612144863
H         0.75421891618261    6.51346744937825   14.12279878870892
C         1.58624675662863    8.49513588513304   15.65149568764313
C         0.19968353631824    8.61152886386673   15.54998320751334
H        -0.24309800781704    8.83268478547901   14.58549348761110
C        -0.59449595044919    8.46169210083524   16.67005059643538
H        -1.66760850086327    8.55601764832466   16.58559342106064
C        -0.01218811401934    8.21418831507156   17.90444195197634
H        -0.63345029502262    8.11032190336884   18.78114348847573
C         1.36438479501284    8.11697381849189   18.01469523740356
H         1.81835792035203    7.94011602560624   18.97833478335765
C         2.16578888456902    8.26464947362920   16.89501563724535
H         3.24240570468087    8.20750780014900   16.98307160953636

