115
CSD_code = ROKVUL | q = 0 | S = 0 | Stoichiometry = C45H65NNiP2Si | MND = 4
Ni        7.97673267506052    3.71058573819390   13.87769795704449
P         9.48476267976022    2.38953485277158   12.99453917800279
P         6.29193234302239    5.10437368688833   13.58280654758312
Si        9.23862663028218    5.41553401084205   13.25701136905210
N        10.11726058801148    6.70663696535446   14.10685389022635
H        11.04913463065526    6.39974086332881   14.34673720379912
C         7.03226690120100    2.20790032476502   14.62665219094105
C         7.46999058959803    2.45384811519609   15.93526031509173
H         8.16545772566841    3.29287619143411   16.11618438545112
C         7.07168816329129    1.67484095954664   17.00407355950886
H         7.42119381402379    1.89326767171701   18.00493184624479
C         6.22287865763066    0.60091049192459   16.78019550172425
H         5.90495462875175   -0.01974528715914   17.60594952255158
C         5.79267472074318    0.32464102980855   15.49567816145753
H         5.13751320538854   -0.51772053438204   15.31731445244712
C         6.19176385560139    1.11706738427527   14.42702540292440
H         5.83320041881616    0.86334221611551   13.43657410527928
C        10.75173662841518    4.71499893292931   12.30182959033019
C        10.86385383837107    3.32861833611557   12.24363881510705
C        11.97728205691533    2.74611536737719   11.64650352170726
H        12.09879561620940    1.67321311464694   11.61443532239619
C        12.96510394604287    3.54395178683235   11.09694925118603
H        13.82825538552746    3.08650388952410   10.63403085612635
C        12.85459939452612    4.92387570766141   11.15001886737890
H        13.63215560820760    5.54404343409180   10.72657509748976
C        11.75459535668890    5.50051874665850   11.75936752763283
H        11.67831504499581    6.57539565784566   11.83168080140122
C         8.11774124586044    6.27765062572158   11.93663794765532
C         6.74449319504108    6.09308604525396   12.11321548561235
C         5.84542007730956    6.65512708638517   11.21554254477232
H         4.77931330270769    6.52805128949540   11.33852022149865
C         6.31134013296611    7.38661882285548   10.13623261148673
H         5.60783117795801    7.82062350026167    9.43966567152233
C         7.67217687670302    7.55367976445125    9.94482675593553
H         8.03233569428850    8.11024080763670    9.09105906168324
C         8.56733287920054    7.00122401623637   10.84491833685818
H         9.62895123161964    7.12199563775039   10.68820197656952
C        11.09575568482069    1.67195280873385   15.07977192196742
H        10.35124570158454    2.05850233365006   15.77375458844241
H        11.73332304445017    2.49634422115423   14.75931109696755
H        11.70927119857386    0.94199371214130   15.60593659244424
C        10.40217075872996    1.03260667943052   13.87950697319895
H        11.16383573822864    0.64981414686319   13.19040093019978
C         9.50375080031510   -0.11909878362638   14.31163815633339
H        10.10071011288187   -0.88770933267858   14.80184605823962
H         9.00160209552898   -0.57059225644095   13.45863144912194
H         8.74794752795932    0.22409700135091   15.01265678733990
C         9.57965569961242    0.73923176941222   10.62393948217059
H         8.97593886766680    0.27066047918362    9.84711630213182
H        10.07868461540207   -0.04983715177433   11.18242941896752
H        10.32898502667503    1.35891868900931   10.13666388613741
C         8.68240635438260    1.58270206902810   11.51845758471531
H         7.89461160274504    0.94902331798285   11.94483924825240
C         8.02719719909684    2.71677081455602   10.73382547052246
H         8.78451707700505    3.34967220766446   10.27167688057123
H         7.43488688707902    3.33834625580268   11.41462817666214
H         7.37200274137670    2.33130439309318    9.95439797409875
C         6.23660737554758    5.95894457974624   16.24980031752894
H         6.35066734985401    6.78338500830510   16.95163433796270
H         7.10821989859882    5.31424986604452   16.33984038517265
H         5.35463907476664    5.38472510318225   16.52300688466885
C         6.14973721610330    6.49148822315123   14.82498061386388
H         7.06128885771968    7.07582523405691   14.63844226189621
C         4.94717701320180    7.40592754349117   14.62965108792440
H         4.01909320886152    6.91230978739590   14.90894246522070
H         4.87138386853512    7.73927987549348   13.59611827993035
H         5.06331199738309    8.28663837786389   15.25981963506619
C         3.92144337766754    3.89576775511994   14.46572497068350
H         2.97582665393175    3.42593275360237   14.19702845741326
H         3.72416091866840    4.61729948356064   15.25481334484512
H         4.58639179944064    3.12701145196172   14.85507275822459
C         4.53932941095120    4.56263396169005   13.24056660751955
H         3.94758147581164    5.44618936749364   12.97685033010232
C         4.56646101865625    3.59291639110270   12.06334724130823
H         5.19649518267219    2.74103700969478   12.31040852124200
H         4.96601668848670    4.06929129934571   11.16934366879542
H         3.56317722815683    3.23042099965691   11.84335707557062
C         9.56859638235572    7.47456925179950   15.15304286801036
C         8.97478063207823    8.70570920068310   14.85370370814774
C         8.41149913406637    9.45218971592896   15.87656509830176
H         7.95818937018209   10.40263569416644   15.63943299738176
C         8.43402891421197    9.01960607844585   17.19255890769874
C         9.06098906235667    7.81623425630838   17.47690730862517
H         9.10374040251575    7.48691536995916   18.50414379102750
C         9.62147231141534    7.02970451925373   16.48314917000268
C        10.01717078656910   10.44163299379227   13.42200249273587
H         9.67196358867588   11.25063962597370   14.06217612378028
H        10.11706549983302   10.82312379521004   12.40788802961536
H        10.99680453976350   10.12409781845216   13.77216498525220
C         9.03591687643959    9.26585271191617   13.45271391917310
H         9.42118613193401    8.48084829584737   12.80013753187332
C         7.66848947750007    9.69636919389547   12.92567606079889
H         7.25097936806161   10.50665466888829   13.51863241023196
H         6.97449767001757    8.86054754895479   12.94197626947621
H         7.75949979231840   10.04013187314378   11.89733035805929
C         8.51306284256197   11.19345122514172   18.43110782840727
H         9.57883402946744   11.05175762390759   18.59670577138047
H         8.10235083525015   11.75179645446706   19.26996960593749
H         8.38329732056241   11.78552829987454   17.52862092404416
C         7.81240975364268    9.83982374092055   18.29744958810669
H         7.94134682336131    9.29609670470206   19.24053897823935
C         6.31245110175659   10.02899031652466   18.06081803548710
H         6.13315729755754   10.57893270276966   17.14008001788716
H         5.86636622969129   10.58371548543253   18.88377949232363
H         5.81474464440851    9.06398581546355   17.98642118064724
C        11.81837521035450    5.96796992356579   16.97983512610554
H        12.24734536804240    6.43232894793339   16.09392077560148
H        12.33687278146687    5.02818374687324   17.16083657576336
H        11.99567315620467    6.63117029511442   17.82442327225776
C        10.31352426635221    5.72565006418729   16.81403739610013
H        10.16432524415206    5.04284534675967   15.96690284463653
C         9.76987369990628    5.03418550909402   18.06423037053689
H        10.07029297479851    5.55987939946414   18.96772398630283
H        10.16673781128839    4.02182202473786   18.12322986237773
H         8.68381940268533    4.97927906359117   18.04165226057291

