97
CSD_code = ROKVOF | q = 0 | S = 0 | Stoichiometry = C39H53NNiP2Si | MND = 4
Ni       12.44403133689183    4.24292612416740   11.30617409122879
N        14.35506889587873    4.76199392019942   11.31614280132275
P        12.64354439993305    3.58045337020439    9.21636913278523
P        12.28348634159268    3.89143391364272   13.50021972258333
Si       10.39119706943907    3.47602911346028   11.20420111075013
C         8.85042605922873    4.62667799395252   11.17946058096212
C         8.78753780533579    5.68315855351915   10.27870632947137
H         9.63438149928001    5.87872971120375    9.63557046532372
C         7.66242134287274    6.48238551488824   10.19653959460383
H         7.62997206499123    7.30085041861551    9.49149218544333
C         6.57624757309024    6.23266674643009   11.01857059085873
H         5.69471654523665    6.85443384404545   10.95746489635570
C         6.62474628229335    5.18249895674403   11.91946503534451
H         5.77873863469846    4.98222451075490   12.56191555591438
C         7.75496100657285    4.38842136111983   11.99765388940754
H         7.78722255785904    3.57064975382556   12.70356889773060
C        10.20475988083677    2.29856026685509   12.71122448567571
C        11.08664683717973    2.53360595256285   13.76908729112925
C        11.01458380561209    1.75099773739206   14.91504699280042
H        11.69883888872507    1.90347934771218   15.73675482642076
C        10.06335366368320    0.74979866440743   15.01335676529406
H        10.01150934774424    0.14503705637156   15.90751884807403
C         9.18423770060365    0.51950453234399   13.96849946952391
H         8.44606161276326   -0.26580068889727   14.04657458175283
C         9.25984204527661    1.29271122105962   12.82235475973004
H         8.58312007250322    1.10354632261601   12.00265896593010
C        10.11706421363778    2.60400361479305    9.51605184077800
C        11.12846476346236    2.78208034504808    8.57354111145323
C        10.94087076297638    2.34768716197256    7.26654840408367
H        11.69795317702900    2.50463786080374    6.51215391547673
C         9.76068143793301    1.71928012160664    6.90954067784848
H         9.61925664552802    1.38161065352386    5.89268020459009
C         8.75870382599813    1.53224311522710    7.84777686643132
H         7.83544126651292    1.04905496253066    7.56207549911643
C         8.93519884931565    1.98741942251468    9.14228870146429
H         8.13781821103235    1.88127194673084    9.86273268488308
C        10.27860970729817    5.75870890375279   13.99056887911346
H         9.93401022368501    6.63784747471137   14.53337597488894
H         9.51990487590289    4.98354869530666   14.08175694039508
H        10.36991891520680    6.02187839006758   12.93927219830965
C        11.60825271475015    5.27509761998395   14.55899189972269
H        12.34801356365164    6.07914037990928   14.45596231737116
C        11.43815750266987    4.92886077479778   16.03449037679570
H        11.03105189712866    5.79235106022550   16.55945376536322
H        12.38024406707646    4.66866167064248   16.50957951469725
H        10.73903313692583    4.10385109694163   16.15597325871904
C        14.41430746677899    2.14686208826913   13.80920832448811
H        15.25585621285786    1.78421551502111   14.39824879181336
H        14.77860964966163    2.41693107878906   12.82126942927809
H        13.69187110453910    1.33713137148025   13.70656522874145
C        13.77800137168132    3.35885179908063   14.48106166548924
H        13.44024449498043    3.06203504643276   15.48023746857118
C        14.77320701738212    4.50896493874514   14.60419522801890
H        15.72173348303173    4.14253130543634   14.99480104550828
H        14.40879823095817    5.28133960128061   15.27764223854689
H        14.94935826835570    4.96053161519318   13.63044300337693
C        13.32349709313098    1.20029663203006   10.35132184226622
H        14.06540525707495    0.43994965522432   10.59096629189642
H        12.40774827137884    0.70339045400235   10.03277215001525
H        13.10178087280397    1.77301555267261   11.25840830859898
C        13.82889627396766    2.13893126451071    9.25785463711140
H        14.78727049125300    2.56787188629658    9.57340200089195
C        14.02801875027861    1.39519602239605    7.94452858553679
H        14.76157687815909    0.60220502687215    8.08812683611865
H        14.39619590922859    2.05312498129247    7.16042626005680
H        13.09843359556741    0.93574777179296    7.61580695991436
C        12.17803406804553    5.76485245904866    7.63587951672945
H        11.16721168668932    5.37267630467838    7.51922259484074
H        12.41402421526275    6.37771793264427    6.76736225498430
H        12.20972344904833    6.39856709152588    8.51991685936940
C        13.18564705085541    4.62858462308967    7.78041732932415
H        13.14683120882648    3.99771448247498    6.88433030371459
C        14.59958862895578    5.16728062342216    7.95221382235009
H        14.86903758840721    5.77991181081018    7.09278575819270
H        15.32348700085475    4.35853909404755    8.03151845554275
H        14.66960993100729    5.78519850204850    8.84401054780001
C        14.91441804984845    5.99260762877733   11.24648756631641
C        14.12628560635926    7.16667969704408   11.24343175707527
C        14.72217881924459    8.41190894040883   11.17312158820947
H        14.08639239746754    9.28874442767033   11.17014045629010
C        16.09734311333411    8.56775299226873   11.10548606852609
C        16.87583210278814    7.41673610743568   11.11161046275953
H        17.95309607625347    7.51400852719935   11.06002683671037
C        16.32477629940565    6.15428548516629   11.17709557619155
C        12.62448231587062    7.09182048777498   11.32657476983848
H        12.27801785127846    7.44280537179418   12.30030458920038
H        12.26612286781665    6.04316190932344   11.17763124340916
H        12.15970329483189    7.72209856189572   10.56699256823912
C        16.73611228797938    9.92439321484784   11.03515780326239
H        15.98117342103177   10.70139029872178   10.93515083015591
H        17.41449135190677    9.98903604414559   10.18402705474773
H        17.31626092830995   10.12456273902093   11.93746491316765
C        17.22684080790875    4.94853575863025   11.17418644259557
H        18.26705863965759    5.26082582058749   11.11900291621421
H        17.02502011538030    4.30410642116442   10.31468740955258
H        17.10236384241814    4.35461637602566   12.08269469295285
H        15.05872126886968    4.03294717009330   11.27667382084740

