118
CSD_code = ROKWEW | q = 0 | S = 0 | Stoichiometry = C46H65NNiO2P2Si | MND = 5
Ni        6.14746786232379   17.12892418591399    8.96571533034376
Si        6.79273652684953   19.09354316645975    8.28294295720137
P         7.17343608338924   17.60459824793662   10.86393039276774
P         6.34926620036161   16.50370528049232    6.84871918795030
N         3.08332003721372   15.08699781637653    9.90614261489686
O         5.28294353033180   15.35851332613169    9.60602687806231
O         3.95444450878038   17.11587653326619    9.31812418202491
C         4.14462020964846   15.91376048468291    9.59361952938372
C         5.44931342633887   20.39882917848041    7.85887753856292
C         4.26530424431026   20.45321102990745    8.58679581815903
H         4.07848437239788   19.70749745503110    9.34487341403704
C         3.32047054623339   21.42820138676394    8.32240673927767
H         2.40176131323722   21.45672643963223    8.89045256567662
C         3.54909019517850   22.36548078936640    7.32875302675438
H         2.81296398230324   23.12923971495331    7.12186642751303
C         4.72181543659343   22.31687839681006    6.59399320865692
H         4.90117121797158   23.04215564165773    5.81258561099813
C         5.66313622597042   21.33769237253600    6.85744038135893
H         6.57090429430737   21.29536592527928    6.27260883186170
C         7.73921600220314   19.98835836553190    9.69297160849350
C         7.78164577844866   19.32393344946810   10.91863188488467
C         8.28903967869106   19.96745390586399   12.03981265459359
H         8.29574064397059   19.48045059649121   13.00405354706775
C         8.77568425521693   21.25921057287867   11.93310736734253
H         9.16997152013445   21.75851358976715   12.80673209274105
C         8.75083511633440   21.91476108022100   10.71296393978122
H         9.12787216419127   22.92437674168936   10.63598047804582
C         8.22010846371124   21.28331212926830    9.60123607648915
H         8.16177381917985   21.80853182723084    8.65975280255811
C         7.86606419486432   18.76827027184321    6.72074299661000
C         7.61914388484048   17.56101057835930    6.06046615150152
C         8.33550454497277   17.24113593781705    4.91533129441016
H         8.17048097309692   16.30507147626340    4.40245188178565
C         9.28613462125837   18.12037448590585    4.42341431257103
H         9.84303270516675   17.86568855958763    3.53299616823873
C         9.52961994506735   19.31821929692937    5.07379674529664
H        10.27748718710520   19.99780005463790    4.69126128143372
C         8.82054655463988   19.63730000422263    6.22025378304738
H         9.02418448359420   20.56208610119283    6.73885210195796
C         6.06576586131542   15.89681256633388   12.75914457232369
H         5.36435039222722   15.77257594598527   13.58320676413859
H         6.98541428863680   15.37144415810104   13.01128706522248
H         5.64654725298655   15.43271530583598   11.86829535809865
C         6.32415271102489   17.37865277301583   12.50219468442160
H         6.95568235596214   17.78722993925497   13.30002860998629
C         5.02503716987940   18.17864612851092   12.43212590072006
H         4.41425689261782   17.83546657114000   11.59747270676724
H         5.23840467039707   19.23737236494815   12.28131568222726
H         4.45051167418625   18.06626197944278   13.35057415136723
C         9.57155986317507   16.87386842223546   12.28269747376954
H        10.44939758910728   16.22831545140057   12.27950666888641
H         8.99397707550922   16.64848616257861   13.17572903040383
H         9.91442363230764   17.90471471760093   12.33491456874916
C         8.77046001497146   16.64104177105733   11.00841060177055
H         8.46466533443027   15.58806447644707   10.95658109604291
C         9.61408005020714   16.97217376161136    9.77954658731082
H         9.99444878203309   17.99066113791989    9.84369440193072
H         9.00961857763007   16.89359214405669    8.87464080434465
H        10.45939126526191   16.29116627371792    9.69575101744564
C         4.27461958495854   18.04743963178576    5.88468421299118
H         4.97235603121030   18.81913308270205    5.56216291811413
H         4.02817862974005   18.21876491860283    6.93131277876498
H         3.36371373561150   18.14381939385649    5.29605564305379
C         4.88174300885419   16.66039508838787    5.70854532200631
H         4.16280186719671   15.92262676602547    6.08567463112813
C         5.17779889291596   16.37756279446622    4.24046895227545
H         4.25720911602767   16.46141646981078    3.66372582963321
H         5.57511058348817   15.37637791930944    4.09012369053149
H         5.88744649818290   17.10255136346089    3.84716877886846
C         5.85242897502102   13.75502940437651    6.85834753878626
H         6.25098144676141   12.74217892499443    6.80758170096487
H         5.01353684578234   13.82351850056187    6.16886153228187
H         5.49367871667046   13.93275024138224    7.87058490013617
C         6.94560001304640   14.76466569082950    6.52327945160005
H         7.23013628568001   14.66900669209179    5.46929494624484
C         8.16834480365620   14.53331843656520    7.40443832833805
H         7.88881799832964   14.69007826414254    8.44698228715920
H         8.97079295390833   15.22287607579308    7.14355188236446
H         8.53817098097882   13.51470874597875    7.29456006669096
C         1.76809398829382   15.51158407070914   10.20433537160780
C         0.94095534671196   16.00201765637971    9.18617059647185
C        -0.36228171262267   16.34755094006146    9.50326286348303
H        -1.01124056973113   16.72139248039902    8.72876201064094
C        -0.86871688370196   16.20683281693154   10.78727120489202
C        -0.02988203656241   15.72702301174563   11.77793911894563
H        -0.41563725780330   15.61606051375695   12.78064033092726
C         1.29007141485171   15.39385993286114   11.51350762689734
C         0.64521603233700   17.00115250873278    6.86060738282812
H        -0.33959135600450   16.58364367721876    6.65875576436817
H         1.15693853315072   17.11683713549565    5.90717459833629
H         0.53306804683717   17.98621762707764    7.30690253823728
C         1.46327712114935   16.08724048522037    7.76968530835193
H         2.47336575672564   16.49848956807158    7.82191090428702
C         1.52790594768170   14.67854009676077    7.16832173073125
H         2.19814612446875   14.04518211104994    7.74367168645262
H         1.88587770981535   14.72069055816145    6.14073150232302
H         0.53824802729807   14.22398888232498    7.16826961933727
C        -2.56245512031362   18.04929940536842   10.84444527268312
H        -1.86893877228672   18.65961413864659   11.41875526964830
H        -3.57830794534483   18.31125698310061   11.13386149972306
H        -2.43350993899090   18.28547033725335    9.79123909260771
C        -2.30129507143150   16.56419506079241   11.10335879202414
H        -2.47430477898490   16.36934762260460   12.16816944555734
C        -3.27061315485784   15.69523045435746   10.29929678471788
H        -3.15709872617343   15.87622116070630    9.23342632974068
H        -4.29885166669831   15.91778090226413   10.57754649684366
H        -3.07997669266384   14.64112744445382   10.48960800020698
C         2.03474488531975   15.69984716808188   13.90895146771850
H         2.12008505145332   16.76316176505169   13.69669586975408
H         2.81327488857199   15.42144620441761   14.61749901407697
H         1.07371963442207   15.51722964764642   14.38264159876701
C         2.18839533375906   14.88885902154026   12.62148562926481
H         3.22805765111170   14.99772417569844   12.29789610088657
C         1.91165719832557   13.40573154843573   12.88527137298153
H         0.88464084070256   13.26819428624575   13.21691941575166
H         2.57905608383790   13.02403822990320   13.65582864046200
H         2.05526203625945   12.81764506143366   11.98062410896126
H         3.36459485677326   14.19963845596438   10.29825269716569

