100
CSD_code = ROKWAS | q = 0 | S = 0 | Stoichiometry = C40H53NNiO2P2Si | MND = 4
Ni        9.23382066068551    3.21074395687782    3.73304712543891
P        10.88059381812188    1.77928083263125    4.11988823890662
P         8.51774889366624    5.24642800690528    3.29837224090728
Si        9.77720494152209    3.98976285119289    5.69397597066402
N         6.86330795201463    1.00529282587228    1.73640140497884
O         8.59722722703015    2.39728247887624    1.94696206141381
O         7.36352482460963    1.98848452604002    3.74551391590773
H         7.30401045425927    0.79132021281970    0.85239756241434
C         7.62856451122907    1.83288258701365    2.53550800286307
C         9.08027626990005    3.11659513595080    7.25572558117186
C         9.76625528696635    3.20119869172098    8.46165704561619
H        10.69051806756538    3.75823286854899    8.50944130778752
C         9.28809154194321    2.56592968379165    9.59364973083292
H         9.83159622779846    2.64063211552828   10.52510984023334
C         8.11655499231597    1.82935884139896    9.53197740524110
H         7.74438169575844    1.33119220667027   10.41587848812304
C         7.43142176340742    1.72642027089381    8.33303498082983
H         6.52371189503800    1.14305847701956    8.27748089975637
C         7.91058556717950    2.36578271998963    7.20344502340076
H         7.38792503075635    2.26576471935117    6.26433642742445
C        11.68816147080823    3.77862265801251    5.75721865662538
C        12.18323397808857    2.71571894666965    4.99757915630498
C        13.54565319181810    2.45626368566470    4.97434531051869
H        13.94892296486013    1.64854519533987    4.38064594018987
C        14.41310661778670    3.25110352193755    5.70673421400787
H        15.47463890705088    3.04982016764612    5.68212703811868
C        13.92539973547093    4.30477673686068    6.46014866212147
H        14.60684490713184    4.92755682203194    7.02168880049725
C        12.56465506828331    4.56566620452473    6.48346297312790
H        12.18617674353390    5.40082589517413    7.05397715571595
C         9.42377302488851    5.87002155817930    5.78201510822237
C         8.95872422641352    6.44730358823339    4.60062401515177
C         8.81668486743640    7.82572584169801    4.51165155829643
H         8.50432880025510    8.29229405424711    3.58887147979265
C         9.09175172757022    8.61899554255821    5.61270274746202
H         8.98210873831165    9.69188342169840    5.54275359071928
C         9.49378367503405    8.04101776564875    6.80612848076176
H         9.68425899191146    8.66348461080025    7.66860118584235
C         9.66719558388248    6.66957728613438    6.88537291670301
H         9.98511251311447    6.21679968748565    7.81265536052870
C         9.29175017221817   -0.30963440019259    5.13121034031551
H         9.39753879247528   -1.03417185226980    4.32695836385528
H         8.50314636627446    0.39147266832683    4.86174820642060
H         8.98028125937439   -0.84377492408733    6.02736298949166
C        10.59936044974871    0.43516231577321    5.38975306617061
H        10.47702501161288    1.01051944437691    6.31894958836718
C        11.77601446013452   -0.51785232734910    5.56446305238821
H        11.57972596084345   -1.18477636885357    6.40290308298434
H        12.69232984255734    0.02963295715729    5.77602573882274
H        11.92632098418538   -1.13069300785789    4.67830099714787
C        10.90102409130638    0.01320687982122    1.94440258416910
H         9.97395003375813    0.50644962554437    1.65962973241291
H        10.67024789041281   -0.85449190503291    2.55849945512466
H        11.39845638697122   -0.33325519008677    1.03850366178950
C        11.78825201944591    1.00602717041183    2.68621006653264
H        12.68305281098518    0.49590336530607    3.06096542936619
C        12.18149811330674    2.14917574206925    1.75433778602737
H        12.72675199770446    1.77414343899084    0.88915110913226
H        12.80483651645411    2.88012067981957    2.26900085717488
H        11.27555129584171    2.64388043944862    1.40323372842133
C         6.12278125033212    4.99044565243005    4.58040638261409
H         6.41358699736113    5.71166727849480    5.34383024063572
H         6.52879533950821    4.01719312211533    4.85451901362268
H         5.03638314748555    4.92409520308074    4.56000416344371
C         6.66334114153126    5.40495644942159    3.21393579122855
H         6.36037674095236    4.65308962622675    2.47379401230020
C         6.12142130277684    6.76800589460956    2.80227909035977
H         5.03815966769090    6.70719495010150    2.70230673525735
H         6.52798401238972    7.09832126133836    1.84908720053827
H         6.34477321119116    7.51381865819589    3.56160188362217
C         8.68072645240226    5.29482799868809    0.52075395470386
H         9.20555368170599    5.63619412773689   -0.37081822016686
H         7.61410766066246    5.45480465071647    0.37276394166899
H         8.85179972621861    4.22628207115370    0.63961111577014
C         9.18382929552580    6.03783604355939    1.75300558224475
H         8.87415423486979    7.08838291248704    1.71443577459397
C        10.70352713476374    5.95639878078617    1.87243145898088
H        10.99771072307571    4.91831603746206    2.03920492932527
H        11.05680441015494    6.54821321160278    2.71668003503836
H        11.18845963611418    6.31533377967320    0.96597865879827
C         5.89221813097651    0.08606850578639    2.17532069395741
C         4.72606898374810    0.53022847280084    2.80254654795794
C         3.78718453294857   -0.40566091419931    3.21085384328785
H         2.88727218247814   -0.06119346298744    3.70172032611125
C         3.96310600587772   -1.76222844556297    2.99082304574465
C         5.11601261180351   -2.18091626047287    2.34166355968654
H         5.26660548723909   -3.23587308886829    2.15682074070955
C         6.08449080862441   -1.27923176979120    1.93462913408979
C         4.48504061357622    1.99082187017784    3.01219620954311
H         5.19786334521120    2.37221792115578    3.74028241534081
H         3.47388255280817    2.17200886817973    3.36829311495454
H         4.64087448075911    2.53403943474694    2.08037624579819
C         2.92359369245971   -2.75851149814590    3.41143377943330
H         2.32654101746326   -3.06424438040281    2.55129236551697
H         2.25474854543170   -2.33156820071084    4.15474870364017
H         3.38947757044621   -3.64970997859597    3.82771595074666
C         7.32875392053883   -1.75972776150147    1.24521225795743
H         7.39373143548719   -2.84411709331513    1.28820911323098
H         8.21519691293347   -1.33796041889641    1.71687292764079
H         7.33070959133717   -1.46201146015888    0.19485983885945

