75
CSD_code = ROKXIB | q = 0 | S = 0 | Stoichiometry = C40H20Br6N4O4Ru | MND = 6
Ru        4.95597899221387    5.79147892424246    4.21316646683466
Br        0.35578372159257    5.20987654718366    2.42442692546320
Br       -0.57419502291766   -0.22956000773453    1.14223925746838
Br        4.73807264984293    1.69769277940293    1.54071933854567
Br        6.13432703508857    9.90841989255049    6.52147843132443
Br       10.26294524658917    9.65659732707036   10.40537794078277
Br        8.37209723540601    4.88189095567230    7.98270406377804
O         6.61056572842786    6.35244889651282    3.03469034504499
O         4.19874932288359    9.87001577464265    3.41164024959161
O         3.25076767980377    5.03115121727804    5.30915508021794
O         5.83188731269668    1.71447297091012    4.90893644586711
N         4.20282141481482    7.70301980315860    3.92258803105467
N         5.76457258208350    3.90780752711975    4.54210881628252
N         3.25399347962424    4.27099396878075    2.24935663632782
N         6.57050700571584    6.88740404683710    6.54942172311375
C         7.00859385475541    7.54401188859923    2.77030802044950
C         8.31527017360892    7.69655438737128    2.23451256499041
H         8.88462787024985    6.79292252718102    2.07254844329223
C         8.83619706514410    8.92492037393349    1.93165850789909
H         9.83733286559066    8.99748567660734    1.53148263742218
C         8.08793160690535   10.08633516438476    2.14021149485748
H         8.50793392373849   11.05227727083944    1.90783229791201
C         6.81484809134131    9.98383968311021    2.63570720299234
H         6.21922245093999   10.86901445074728    2.79855183686696
C         6.24791089874622    8.73666868082831    2.95587888766103
C         4.89977086512846    8.71629130129775    3.43748351817318
C         2.97333250292295    9.57422763807541    3.91560211395505
C         1.87803699743421   10.39437043863542    4.10428380722007
H         1.90985974616029   11.43959222350666    3.84473617997953
C         0.74998970653873    9.79945392436185    4.64121013267310
H        -0.13260197644938   10.39832104149918    4.80483098700589
C         0.72836469221055    8.44735442266345    4.98012566693658
H        -0.17418123682152    8.02951627282856    5.39948458200847
C         1.82571122056675    7.62996859683533    4.79516219335553
H         1.82935289066984    6.58902640509507    5.07321741768143
C         2.96198443023547    8.20977977538485    4.24638765246148
C         2.82417201483108    3.82389771668118    5.19681214731244
C         1.44045647912049    3.56955232662520    5.38625141624798
H         0.80997698314230    4.41298336706652    5.62657312114665
C         0.90756880733058    2.31363579318216    5.25806995449428
H        -0.15559884475344    2.16980776095195    5.38879276232718
C         1.71976703082606    1.21944323222789    4.95721778931142
H         1.29122308611841    0.23467521579535    4.85381612069868
C         3.07145349730795    1.41034238329107    4.81233232824738
H         3.72369769166844    0.57557871487762    4.60088139959136
C         3.64294274357032    2.68705682052664    4.91618128305585
C         5.06511426835217    2.81517060560727    4.77478065905231
C         7.11444093186659    2.13853168903852    4.76870610207679
C         8.29146077765331    1.41872927328173    4.83811427151270
H         8.28864010737204    0.35567693284646    5.01262873805305
C         9.46159133228425    2.13864296001240    4.67890991490248
H        10.40750002877108    1.62192220577787    4.72794162632343
C         9.44902095283116    3.51598117113515    4.46175035075637
H        10.38967229113272    4.03378273459335    4.34996496521853
C         8.27204515792694    4.23397763381405    4.39027900761937
H         8.25538567543797    5.29713374947454    4.21403532446644
C         7.08745963893048    3.52424751138406    4.54082410298060
C         4.00128274908090    5.02520787118741    2.75743076493230
C         2.39911886932698    3.28377923245053    1.93479622414445
C         1.01319221476058    3.48919414488431    1.98835295805565
C         0.12973183003901    2.45522334251124    1.74838987137224
H        -0.93326875866783    2.62723863582539    1.80636962528639
C         0.63031572510551    1.19872466281744    1.44335941542266
C         1.99435180155094    0.96305309142179    1.36310950845854
H         2.37237504965962   -0.01819778666221    1.12377075547410
C         2.86895935433009    2.00272160184096    1.60968194602059
C         5.85633033769904    6.42558210878747    5.73577304202969
C         7.38805059282373    7.50238372768590    7.41261658329057
C         7.35971479692531    8.89942468427529    7.56210720799327
C         8.20674022733381    9.53970272203956    8.44436256296324
H         8.17198783562739   10.61267526531628    8.54730926084977
C         9.09936097107409    8.78387765735700    9.19152058539186
C         9.15950682960817    7.40320052810649    9.06680247657925
H         9.85912867835757    6.82664146466103    9.65075152614691
C         8.30866722028269    6.77165447991154    8.18120640272815

