61
CSD_code = ROLCED | q = 0 | S = 0 | Stoichiometry = C25H26N2O5RuS2 | MND = 6
Ru        3.12778969794396    7.12726788339841    3.95080085366177
S         0.61100526830863   11.70063661444573    7.66713730120003
O         2.57168977933394    8.41814252249690    2.48165731904497
O         3.46670233184094   11.22927250664765    3.30118719452368
O         1.30797235369957    6.13569716648524    3.71967292115162
O         3.82479717194724    5.74460796123138    2.58682149408168
O         3.72451652115046    5.81922133507463    5.46003393549653
N         2.44366246997253    8.44218721401493    5.17049334057620
N         4.79963343668585    8.05145073597753    3.94017831638107
C         1.91241972515291   10.72153386866256    5.67566153639687
C         3.58249798590631   10.15124885794111    3.87382789783674
C         1.35764467018853   10.36749610652769    6.88196767306749
C         6.33012907383346   11.40667876376934    3.32379682306363
H         5.63730198064327   12.16177122888686    3.64325072381163
C         3.93924156245383    6.01012432202885    1.36202822550599
C         1.47374947165973    8.98098221622892    7.40546125962782
H         0.64313594977078    8.72414881074966    8.06335920431936
H         2.40440108449972    8.87294078399783    7.97537763839311
C         6.03928897684206   10.01424154777053    3.34822608134685
C         4.81346956920270    9.34112260788271    3.73877673545136
C         2.61538382823201    9.70498670265993    4.91088635879938
C         2.96452174239685    8.31409829179042    1.28570030944389
C         1.10753355755989    4.99211687720844    4.20144190322100
C         1.49380756006551    8.04646834888643    6.19069816166891
H         1.74105402578644    7.02657793843160    6.50129803836237
H         0.50026140463499    8.03050797782886    5.71914839315817
C         1.71727802617876   12.09930536124509    5.37792357139163
H         2.07049838442023   12.55783609369480    4.47398901101653
C         3.60841794960529    7.21086272921164    0.71848025505474
H         3.82180131678519    7.26168882525479   -0.33921827746761
C         2.67079197571186    9.50670784507448    0.40287550129399
H         1.62097463958462    9.48978792394785    0.11414976875889
H         3.28630080733457    9.50383443038735   -0.49102178118971
H         2.84524678628192   10.41630763932230    0.97489117960841
C         1.91730729079631    4.29825865998232    5.10829948207025
H         1.56955198889144    3.32236900718196    5.41400273469344
C         3.12315286935437    4.73185272529430    5.66729883381689
C         4.51507737577282    4.90970640054260    0.48871322570631
H         5.38603101060932    5.27104391547201   -0.05338121743726
H         3.77204166253016    4.58673501395858   -0.23724866990758
H         4.79800668674418    4.06375726777659    1.11003770309054
C         1.03206079745240   12.74067433599005    6.35062036774901
H         0.73712077903465   13.76993953121639    6.39231585279747
C        -0.17395475983041    4.29918881262111    3.77607473871821
H        -0.78353177840977    4.06494841961379    4.64586174170644
H         0.06224336264278    3.36942132087331    3.26357047968038
H        -0.73122851782829    4.94768893447834    3.10514706143851
C         7.56749328399979   11.66209938231098    2.84277603220562
H         8.05079494051749   12.60941560648642    2.71191397172420
C         7.08602471208429    9.25504756650804    2.88330082383323
C         3.77673854019888    3.79546971620437    6.66774337467665
H         4.65591423744351    4.27341921821341    7.09246211308988
H         4.07530873406546    2.87696022292399    6.16705034806707
H         3.07963241187208    3.54058864403196    7.46284963060368
C         6.98884571957728    7.77293512785494    2.80682548190814
H         7.96308190282757    7.29490119046291    2.91014957739169
H         6.56187153055444    7.47621180744563    1.84090347273394
C         6.06019863825707    7.33361793334684    3.94366239273801
H         5.83465273743855    6.26607333802128    3.87432557839529
H         6.54985287072210    7.52314159239673    4.90939722174030
S         8.41998988706988   10.22447426962479    2.39916877871511

