57
CSD_code = ROLCIH | q = 0 | S = 0 | Stoichiometry = C25H22N2O5RuS2 | MND = 6
Ru       17.90521567849121    8.39266774634177   18.48864401122544
S        21.26809054612638   13.58197585685662   16.95499390680745
S        18.09540193830390    5.66187629279963   12.71304754510633
O        19.80402503149513    7.65382050483798   18.44406969886274
O        18.09885398386491    9.01982221042386   20.43868532132107
O        17.25060082904185    6.59286773019112   19.30403379117944
N        17.78901731783496    7.75728805249350   16.66031026818501
O        21.17741084982277    8.44049558765895   15.91969628383831
C        18.95702147457765    7.15953104473390   14.66394706578548
O        15.98069984230188    9.18746296837078   18.50559342990721
C        21.69456488238449   11.23510322225695   15.94832185585152
H        22.13153874192223   10.41998496909905   15.40340741494738
C        13.73146440715072    9.40131499361117   19.17833520007599
H        12.91233212371958    8.80010813380389   18.79154332375903
H        13.82338803694201   10.31213402415437   18.59252610200197
H        13.50746136096159    9.66082613354251   20.21064498573294
N        18.68097438506058   10.03455774043667   17.84369718251655
C        20.66705769161939    7.90664265112260   19.33418118782640
C        19.19700913896563    8.98866103169136   21.04887032250236
C        19.19260663974037    9.52699131447831   22.46788137935446
H        19.49285161088873    8.74695775970239   23.16384853060282
H        18.19327789002335    9.87073402922358   22.72212765391974
H        19.89414675236345   10.35353919892959   22.55626894429967
C        16.72677505666675    7.05236566464242   16.23496963779539
H        15.87191461017284    7.04390947537119   16.90112934991245
C        15.03549058082130    8.62548493469344   19.11918581630605
C        16.10145950115367    6.45962580193396   19.79459858267460
C        20.01238305705603    7.08957585291232   13.70852707839916
H        20.95939925276595    7.57522294201712   13.84829283827519
C        18.88700634246605    7.84143546123593   15.89735938302450
C        20.53286164073315   11.08978317036095   16.76094981420674
C        22.07568094559712    7.45705763393175   19.01524646873137
H        22.26733510918581    7.62463508418225   17.95705050620308
H        22.16132535525475    6.38823145275868   19.20550970255116
H        22.80857328504511    7.98529458883319   19.61678898754343
C        18.35154632530551   11.21261823375919   18.40497165604769
H        17.47329581554764   11.18877616863086   19.03852240461324
C        19.72917508998079    9.95590760848918   17.00830191499889
C        19.69051127580784    6.33249555345598   12.63899452308584
H        20.29723226215514    6.10994335735574   11.78311304174809
C        19.05901544632227   12.37096665610227   18.20658335635311
H        18.76609025070173   13.29348561972890   18.68018283652374
C        20.42976314959809    8.52621573287248   20.56181355662703
H        21.27154394106883    8.61493670089927   21.23271834857183
C        15.03813860809555    7.36874363915516   19.73160516521832
H        14.11935772641871    7.06707939102692   20.21313259883438
C        20.17739306629636   12.30446582074512   17.37760657520207
C        15.82555943601059    5.15007824233312   20.51102480954862
H        16.71656113408634    4.52844530914623   20.48341868931949
H        15.00224363508060    4.62513134950658   20.03161277900670
H        15.55206731808922    5.34361219277635   21.54563076101287
C        20.04273846601833    8.67853456687777   16.32038008902343
C        22.18160304193473   12.49361494576147   15.96559334300873
H        23.04294277488305   12.87321848314201   15.45166006573575
C        16.69216610144210    6.37054035809585   15.04355909435536
H        15.82091184199792    5.81158566076737   14.74405523954563
C        17.83272740263622    6.42021914974057   14.24713558038318

