75
CSD_code = ROLCUQ | q = 0 | S = 0 | Stoichiometry = C34H35FeO4P | MND = 7
Fe        1.83478953971013    3.09635386728685   10.25846147146980
P         0.12686609978703    3.61146111478931   11.51028911732188
O         3.58002927196994    4.24368478289425   12.26904839299574
O         2.56958022771063    0.44208896739618   11.20905512423833
C         2.88267908771044    3.83051486495110   11.45319012591933
C         2.18812495131431    1.43794827999537   10.78224350757588
C         2.48313737290851    4.23723229312111    8.56957820050031
H         2.88124158413515    5.24732223841070    8.58162369502512
C         1.10342243355853    4.05192056002035    8.51854657932675
H         0.45745134205041    4.92640760528056    8.49368776097407
C         0.55716569411977    2.72283650906099    8.63319622202457
H        -0.51905849845063    2.74928823309350    8.84536073596583
C         0.80772367065416    1.69357329569937    7.53702769579609
C         2.17953020814250    1.92526041914614    6.88607075643201
H         2.16577973871696    2.89204088278508    6.37442875688103
H         2.36067160677995    1.14085899040457    6.15389283037767
C         3.27664910763345    1.93014321524757    7.90212186098602
C         3.38206810008800    3.12444591914274    8.73875985346861
C         0.71668632143215    0.26461642974367    8.06699181138714
H         0.92277281729426   -0.44325515573595    7.26840766322502
H         1.44850343698060    0.10511566680789    8.85380491073867
H        -0.27711754415274    0.06623140701494    8.46328927580136
C        -0.27058336733807    1.88251666885774    6.45819007312072
H        -0.09314839266623    1.19870615047016    5.63125114269626
H        -1.26021952357178    1.68071604331870    6.86395065974781
H        -0.25690871268108    2.90097261749507    6.07418298138813
C         4.79142488167602    3.49689464822787    9.16742211413853
H         5.46036437927311    3.49261596522143    8.30584672577982
H         4.80777095440101    4.48718869795240    9.61659540038913
H         5.18191952223185    2.79470271427471    9.89912432676211
C         4.15909273852225    0.90885295455893    8.01596366876295
H         4.92950913627502    0.93599342963044    8.77094469175924
C         4.20287900711132   -0.30585069272166    7.21982956208374
O         5.24509294313082   -1.07082932122209    7.61978503968487
C         5.42347371679078   -2.29848489949155    6.92447850560085
H         4.51905560547412   -2.90833121603125    7.04030878119637
H         5.55069927342736   -2.08786768460108    5.85543720184331
C         6.63980762084812   -3.00364488452770    7.49568856932451
H         6.79229546996311   -3.94767663154432    6.98023850390245
H         6.49592348065316   -3.19458079481322    8.55583773952608
H         7.52344943917050   -2.38293967702326    7.37240223876319
O         3.47143534533465   -0.65235931869667    6.31459532341107
C        -1.26743462829140    2.44960108130459   11.74100457818205
C        -1.18089830715669    1.16130151616559   11.23265257926245
H        -0.30282491239992    0.88243229069013   10.66802705559093
C        -2.20767600816569    0.25861029098692   11.44938838648468
H        -2.13821500440839   -0.74224579732927   11.04914752251186
C        -3.31998852216614    0.63828418060529   12.18130603292975
H        -4.12246564930626   -0.06454371575355   12.35003595903644
C        -3.40215225054166    1.91954773212258   12.70572540667455
H        -4.26578179284059    2.21183036252111   13.28525504120567
C        -2.37853580121041    2.82314550806912   12.49372557353573
H        -2.43514273936278    3.81991042432156   12.91028375150537
C        -0.70529548542105    5.15008282710773   10.99863313740582
C        -1.95077636240694    5.18317211509114   10.38302263000657
H        -2.52013163829714    4.27176124329864   10.26411833360804
C        -2.46112786947578    6.38530496593012    9.92175617007038
H        -3.43115381981372    6.40765157325317    9.44677659907688
C        -1.73230132636648    7.55398986416105   10.06207297228537
H        -2.13574629229305    8.48885399730424    9.70232252518153
C        -0.47713577229279    7.52238266323800   10.65275774727434
H         0.09829021184023    8.43148937079650   10.74974979391762
C         0.03879307521833    6.32492068153821   11.10663493385579
H         1.02736812367880    6.27831202964104   11.54701541638490
C         0.44539401362692    3.90220234000735   13.28718097596130
C        -0.03370222268834    4.98027444991461   14.02086327737074
H        -0.61738436028580    5.75298650611825   13.54020400778041
C         0.24680681789111    5.07313762238020   15.37363423679439
H        -0.12118061095242    5.91774057170814   15.93803552459062
C         0.99441370271613    4.09269065125447   16.00237571836130
H         1.21262783794219    4.17305624183982   17.05688693616107
C         1.46389426686532    3.00837753792977   15.27720898265054
H         2.04618915254393    2.24101013220650   15.76514001580448
C         1.19042391585183    2.91425754125846   13.92697313513625
H         1.55732016995281    2.07838604443780   13.34383544497356

