137
CSD_code = ROLDIF | q = 0 | S = 0 | Stoichiometry = C46H86P2RuSi2 | MND = 8
Ru       10.96676297073409    4.67487744245238    8.65703467921707
P         9.99878382181564    5.71748913150909    6.66355939274346
P        11.80223457002557    6.50461825189289   10.05369658422704
Si       12.29721424425010    2.68159294939998    7.91480088493323
Si        9.82864787663368    3.05045593614348   10.18577065747755
C        12.26144648031836    1.97694339655244    6.11383980098889
C        14.20875924479602    2.77721179251538    8.20284622635109
C        11.73758089201250    1.21816395262324    9.01655427789931
C        10.74760229465625    1.38300448851738    9.98867936332460
C        10.40124695934964    0.30138452634444   10.79038712651862
C        11.01194679164098   -0.93026689322498   10.64419216109947
C        11.98614347257106   -1.09671593437038    9.67498461354542
C        12.33973690335605   -0.02678099425173    8.87390719514633
C         8.00600357491181    2.58947581272629    9.72221004293948
C         9.64509004010558    3.31153724728213   12.09501561951497
C         9.65101828351133    4.38845787088332    5.35704172502280
C         8.37747082154852    3.60722298079074    5.68648808390357
C         8.30848878154087    2.31247346851844    4.88230118571192
C         8.32329838599440    2.62640371560391    3.39058913017685
C         9.55794356538851    3.44945458488783    3.04325588304057
C         9.62616489592119    4.73920935758429    3.86606728051587
C        10.98624802751579    6.90509177931076    5.58690366483674
C        12.37006259357997    6.32941587347635    5.29045777180125
C        13.09156956273210    7.18201967161890    4.25021689308928
C        13.23850287931801    8.61502086692619    4.75124897426091
C        11.87638662947618    9.19573589833472    5.11454399404434
C        11.15317237294656    8.31723409319555    6.13536979072162
C         8.39717818706881    6.70582983853793    6.83024005849227
C         7.75136888205756    7.22255912549052    5.54400482081461
C         6.65643930639990    8.23349756715303    5.88888400633688
C         5.59425337466348    7.60263081223567    6.78365395737770
C         6.23361622377789    7.03552325719434    8.04732837736185
C         7.32291758666236    6.02946930183254    7.68366271414187
C        12.22451489535678    5.83407371102273   11.77632558850696
C        13.54947008391152    5.06871035480489   11.77358396453175
C        13.67626508552727    4.20247522719763   13.02303340237204
C        13.61849107624170    5.07846831448674   14.26943380633901
C        12.33529659771309    5.90069983137096   14.27177911985613
C        12.20574089637398    6.75014593611663   13.00410273583997
C        13.32922627654684    7.46084489847714    9.48698228781434
C        14.46432594580827    6.58124738434330    8.96089057085453
C        15.48395749368458    7.43609212233740    8.21230107633252
C        16.05914733124634    8.50407476450278    9.13740297872888
C        14.93909471790900    9.35876630089052    9.72218924639688
C        13.91402244696271    8.49083099937492   10.45419016047329
C        10.71218813971182    7.94678051562955   10.58088104013637
C        10.45057197003078    9.00468003211934    9.51540117584067
C         9.64399623176867   10.16006786981864   10.10811127120065
C         8.32142857034042    9.67053523727661   10.68739088864265
C         8.56418510405350    8.57344247835510   11.71852518784231
C         9.37068363588369    7.43403150813441   11.10135833430679
H        12.22986365529858    5.02884796687545    7.85489493036578
H         9.64670864392476    5.18681065617967    9.26323625721593
H        11.91367299255300    4.12116487580679    9.73998675275735
H        10.12044782051828    3.63138977111007    7.89763108129244
H         9.63853492690840    0.42527807977595   11.54578337268973
H        12.46834425750494   -2.05638798566609    9.54719936483718
H        13.10227864112027   -0.16398754195869    8.12038583578350
H        10.49676467158587    3.70970330848634    5.51545746928531
H         8.34891388507586    3.38068026317914    6.75495456649245
H         7.50178387388112    4.20693104331226    5.43182387101411
H         9.15991829318909    1.67722876507499    5.13398835132697
H         7.39877350500208    1.76590802251886    5.14146935299204
H         8.31689121453409    1.70185919041307    2.80969532238331
H         7.42422498731541    3.19051230431032    3.12866955201274
H        10.45262325570126    2.85386707878050    3.23893853567427
H         9.55029317379964    3.70025764430864    1.97958617964752
H        10.52613414279276    5.27090886788371    3.56011047866105
H         8.76175323680302    5.36080323533014    3.62659962054317
H        10.43158481970371    6.98341804703577    4.64656525059787
H        12.95638779039658    6.31822395749248    6.21121069950598
H        12.29292392263582    5.29710984490047    4.94295636949907
H        14.07640378894536    6.75790895359229    4.04288716664433
H        12.52489859386889    7.18091786867441    3.31493562690696
H        13.88140169872355    8.62304930411002    5.63448193483896
H        13.71594865391288    9.23368043137799    3.98820421114405
H        11.99744232510714   10.20372184359023    5.51913249030713
H        11.26499896298382    9.27343267474259    4.21135282142123
H        11.73151338788339    8.27532562715798    7.05899791592860
H        10.18637639314355    8.77182624104566    6.35652380326905
H         8.73483824005434    7.58014175053498    7.40669888462125
H         8.48253744614263    7.70505236542589    4.89488170901419
H         7.30175562393158    6.39439241441741    4.99487892721014
H         7.10178204192847    9.08961723530400    6.40320827553780
H         6.19627925916342    8.60257492751736    4.96914375985775
H         4.83876209694939    8.34656193163877    7.04580718118766
H         5.09439617672033    6.79756375314647    6.23962820403887
H         6.66302774364139    7.85207876571003    8.63326295537134
H         5.47444484769216    6.54953090230866    8.66400186335222
H         7.77151711159744    5.61644501816272    8.58944245510206
H         6.86024664717346    5.20597717252865    7.14280323645392
H        11.42788715185674    5.09433788449294   11.91338850701757
H        14.38329863192303    5.77323645935261   11.76444477802850
H        13.61247571825026    4.43759380936968   10.88387408755563
H        14.61913662086937    3.65156989574328   12.99545207146794
H        12.86615567420113    3.47078398292923   13.04447430825969
H        14.48093876437045    5.75024937437855   14.28118477217350
H        13.66613192841455    4.46064766362269   15.16846857792059
H        12.31474365372439    6.55435889724162   15.14739719584918
H        11.47755600410240    5.22749010873067   14.33852742305614
H        13.02889648147457    7.46570997043380   12.96861350799815
H        11.27219011977700    7.30568758388624   13.08158433897966
H        12.94015659139467    8.00732647068194    8.61486603822230
H        14.97553318565465    6.07940496158332    9.78051660387860
H        14.06394627477889    5.80906052123131    8.30159382076588
H        16.28642291979261    6.80159456410332    7.82999664951321
H        15.00635317949923    7.91847327601789    7.35563447613723
H        16.60703675843304    8.02045718572555    9.94972786537967
H        16.76283478615677    9.13593859595124    8.59102744277360
H        15.35575645315757   10.09493154657513   10.41382768815940
H        14.44198017988634    9.90565277967692    8.91620897784260
H        14.41271762666725    7.98271174995201   11.28043788144616
H        13.13946122553475    9.13671142686660   10.86851460777728
H        11.24287026579422    8.43600381874109   11.40370691757485
H        11.38475693257463    9.40488452329373    9.11868574920686
H         9.89458597511134    8.55315595278783    8.69302884735959
H        10.22920507550190   10.63773810951805   10.89861894240244
H         9.45711894226780   10.91056107749671    9.33597354730385
H         7.78289184257943   10.50383277732951   11.14402537881180
H         7.69877955290830    9.27556409663227    9.88131699950390
H         9.10866422801949    8.99049807337702   12.57029174933644
H         7.60965741140088    8.19268038524296   12.08826834250627
H         9.52106008770197    6.64149024697947   11.83702388821870
H         8.80659735553601    7.00410281904212   10.27137749138481
H        10.72919887351236   -1.75839341413812   11.27986789052389
H        11.28946107605651    1.57500143919533    5.84814499966198
H        12.97723581897581    1.16488556937355    6.03900937565916
H        12.54385704266244    2.72017403344244    5.37409479016206
H        14.45984493923171    3.10778762457000    9.20571320065910
H        14.65893690288652    1.79968904366060    8.06095809963462
H        14.68135184539310    3.45912177376551    7.50182235251533
H         7.92277022058277    2.24492725303974    8.69601412148953
H         7.65052599260372    1.78744835640694   10.36205551241182
H         7.33178028152884    3.43187186065777    9.84582859031573
H        10.57621519640926    3.14103548837248   12.62538896469072
H         8.91966103630301    2.60339656796922   12.48171052499797
H         9.28276342848260    4.30427858263135   12.34397569316296

