63
CSD_code = ROLDAA | q = 0 | S = 0 | Stoichiometry = C29H24Cl2N2O5Ru | MND = 6
Ru       -4.18737879918409   -1.88624291648255  -18.56912364951808
Cl        2.13610019412160    0.00438771849394  -13.06190328324071
Cl       -9.48082182065267    0.56122046011962  -12.23704875824389
O        -4.16552140418928   -0.25714495928575  -19.86965714799367
O        -3.94575539439811   -2.56780710461014  -14.53874547747282
O        -5.66520195765250   -2.83857247226423  -19.68431302568931
O        -2.87600830078500   -2.82189567687908  -19.84983581058206
O        -4.18788698877484   -3.44743579947441  -17.27698469068226
C        -1.59454451773591   -1.05505868180629  -15.40106162337478
C        -1.52291111160664   -1.24175415663307  -14.00416608803925
H        -2.36879910141218   -1.66118471355287  -13.48617389597119
C        -6.24677315674956   -0.84067248693201  -15.08005408934618
N        -2.74933186997795   -1.17150234508035  -17.51512527136725
C        -7.53507399519219   -0.01499433135097  -16.97029691319067
H        -8.41364787131534    0.46295284187498  -17.37436198769725
C        -3.39361958731535   -5.36204205297044  -16.16948825157443
H        -4.23375849992396   -6.04466698741301  -16.28796678573634
H        -3.55238941418318   -4.79271293107225  -15.25564720579625
H        -2.47522926957750   -5.93600786701073  -16.10005858260979
C        -2.47566910805506   -4.66164864151144  -18.38574342308834
H        -1.88179959633587   -5.56050519966775  -18.31028386981568
N        -5.42593113494609   -1.06331614466442  -17.33425113637183
C        -5.25856701008521   -1.25297150169973  -16.02618502350808
C        -0.45662340912065   -0.51193796247016  -16.05806407307723
C        -0.39174079239117   -0.91930391760327  -13.30401681455213
H        -0.34779625907813   -1.06957486349371  -12.23681467540358
C        -2.74384555121204   -1.36138459103062  -16.19261773734945
C        -8.25900200100083    0.03500196954755  -13.33639005139103
C        -2.31870544830059   -3.91153785780431  -19.56147681002848
C        -6.54155485809890   -0.45220877096647  -17.78903558829614
H        -6.60204134548422   -0.33103064686062  -18.86493095449097
C        -4.47478307467749    0.89129206728924  -21.90457896971434
H        -3.92214555380774    0.57128266143192  -22.78506764755481
H        -3.89485796559449    1.63952981235522  -21.37063540942270
H        -5.41662694358511    1.32481018595573  -22.23138839606742
C         0.69568717873666   -0.18771572664399  -15.32582877165096
H         1.55137792608837    0.22176683305707  -15.83993174153711
C        -3.36369435674432   -4.40586154554213  -17.33950870259746
C        -7.11037185697559   -0.59010137760001  -12.83198561599538
H        -7.01068391859567   -0.73269155916281  -11.76748185143366
C        -6.12858147179531   -1.01616150452029  -13.68454264751343
H        -5.25775198968646   -1.51118556888206  -13.28917326597982
C        -6.89483566503513   -3.38776214124492  -21.62244787852695
H        -7.79478825713277   -2.85177466425237  -21.91519994308938
H        -7.16414500797340   -4.23812240584419  -21.00160612562951
H        -6.39930965229963   -3.74197640827514  -22.52351478751356
C        -1.36156352116327   -4.47149557299413  -20.59663385511303
H        -1.28440165973195   -3.77996262249210  -21.43185955906143
H        -1.72620344621591   -5.43074475334546  -20.95806009049338
H        -0.37844876151749   -4.62282439148520  -20.15664541907480
C        -8.41533634627353    0.23084607851722  -14.68397427166457
H        -9.29803511481029    0.71341924666302  -15.07405310877342
C        -7.41647519366615   -0.19961285151070  -15.57225966755090
C        -4.72355658788978   -0.30039548663078  -20.99823885926337
C        -1.66370489407032   -0.64534105436991  -18.12642513369974
H        -1.76500147078947   -0.50620627482328  -19.19645695398131
C        -5.55851041399391   -1.30199262976099  -21.50204288632623
H        -5.93260532862191   -1.15656718324158  -22.50484454116064
C        -0.52901118460030   -0.31078727239552  -17.45879736621388
H         0.31853950979136    0.10189501549234  -17.98305778086936
C        -5.96406294584614   -2.47262416539148  -20.84923582893828
C        -3.98576797480693   -1.87268567255233  -15.54657754397638
C         0.72198532389639   -0.39179647726671  -13.96992268410217

