85
CSD_code = ROLDOL | q = 1 | S = 0 | Stoichiometry = C34H41BN7OW(1+) | MND = 7
W         6.50832710091856    6.26027554939744    2.97100716305711
C         6.93115224702507    8.12667651760288    2.56570249471583
O         7.01674560292591    9.27628021992566    2.42566245736002
C         4.25469710826078    8.84345330749449    3.69598164529662
C         4.81986140135327    7.50980013867251    3.37922414205086
C         4.41787499808796    6.28212988174423    3.16196437768376
C         7.24836960440032    6.39412591418320    5.18725552998783
N         8.47411283270711    7.08019544745673    5.32434636424634
C         9.67954602122895    6.56559248697017    5.30189558720010
C         8.35474397144228    8.50225954046153    5.59830833746478
C         3.21391931544265    5.49426791402551    3.10902307465517
C         3.13445442904596    4.36500686196449    2.28915305166827
C         1.97602164385251    3.61472877009464    2.24381588156127
C         0.88596622341196    3.96632376498377    3.02432818170687
C         0.95424624741755    5.08205945535608    3.84438190964699
C         2.10411412704584    5.84534598204043    3.88577454676303
C        10.15371238049095    5.22748590114941    5.09818649582744
C         9.38660736559627    4.08912219070515    4.80479750198998
C         9.98745790223659    2.85967174462796    4.61676897808315
C        11.36160313359031    2.71701818111244    4.71058515031601
C        12.14163674320389    3.82957421873919    4.99330837554506
C        11.55092240873330    5.05831242406455    5.18193921145308
B         7.47993536326425    3.50182216932390    1.44001921924901
N         6.17811781610077    5.57476038915819    0.91911943116516
N         6.61535014296350    4.36897649012609    0.51134220460345
C         6.17903645603978    4.12184578854196   -0.73886141414177
C         5.42700846394774    5.21334413566978   -1.13862521245853
C         5.45234181514631    6.10712962975358   -0.06744831322611
C         6.48426957873807    2.88411428796318   -1.49808616061144
C         4.79599639304956    7.43636435093457    0.03084547347223
N         6.20607138783244    4.15204523409627    3.48943343483337
N         6.65657570739433    3.17404284819975    2.67927827135765
C         6.24775816676406    1.96881846016760    3.12177088568158
C         5.50505014422950    2.18378610235172    4.26575219360229
C         5.50041427513705    3.56698589147098    4.46094576704210
C         6.56409154271302    0.68008483330249    2.45717480131312
C         4.81490078442961    4.26084759835274    5.58798248758000
N         8.50611792884031    5.65397952528795    2.27285047069258
N         8.68247778208766    4.37866109165975    1.84811413701446
C         9.97431712538990    4.16035948147408    1.55668083396409
C        10.65841772651558    5.34343589181291    1.77878592556542
C         9.70267576484468    6.26199442421816    2.20322033916840
C        10.52364870985772    2.86726166806376    1.08295448900553
C         9.95671178051762    7.71259753010855    2.41017609059508
H         4.87849294558679    9.65789477046735    3.32747641942164
H         3.25927771541786    8.94213784359116    3.26024244085133
H         4.16310536351564    8.95481808378113    4.77874418136062
H         7.31900174725105    5.43251510077033    5.70503313096516
H         6.48504680748778    6.99042409548504    5.70728070264960
H        10.47665041737461    7.28599156491473    5.43724048880901
H         7.56492154913254    8.93725574415771    4.98774745181809
H         8.09617362136061    8.64657537339086    6.65012869684806
H         9.28515372283528    9.02992471698663    5.39840572651170
H         3.98005152794216    4.09067154153729    1.67461044947728
H         1.92233939774270    2.74842463832164    1.60163469622125
H        -0.01508245565908    3.37349701718862    2.99325002381911
H         0.10521154380117    5.35864827723129    4.45111013343203
H         2.16101561447608    6.71075428959236    4.52976620279822
H         8.31762284543994    4.14373153284585    4.70155505731390
H         9.36771706559958    2.00258901243567    4.39804719208040
H        11.82200016867347    1.75241868279079    4.56560122554738
H        13.21363600364922    3.73268558402182    5.06785675504457
H        12.17110755227432    5.91407843349716    5.40452742877966
H         7.84274913882049    2.52681645579169    0.89456981512141
H         4.93087776170261    5.34591801674644   -2.07748188212708
H         6.00167715029467    2.92834207262357   -2.46995828500979
H         7.55730982824734    2.77557557829761   -1.64413462885528
H         6.12518923089208    2.00457098420839   -0.96715480293033
H         4.45598607334844    7.74986522748709   -0.95242626464809
H         3.93272200285212    7.38870757770550    0.69677598058139
H         5.49105134691844    8.17965888793978    0.42155908595876
H         5.02449408524106    1.44812054991763    4.87640636140377
H         6.15170581582551   -0.13727197439218    3.04184141060376
H         6.13334867592334    0.64565854927656    1.45813743809108
H         7.63924455702992    0.53967261878596    2.36378917942063
H         3.79145391985481    3.89588327213513    5.65904481328100
H         5.31174076345456    4.02657512054043    6.53010998477500
H         4.78870291114938    5.34042403678153    5.45332499251389
H        11.70441990579401    5.52049666250629    1.63935637369330
H        11.60871226255315    2.90278056015000    1.11598477140403
H        10.17515714490100    2.04713439508460    1.70516704401327
H        10.21449040934178    2.67089775014226    0.05763644963166
H        10.95619664857028    7.85941924922856    2.81256923950249
H         9.91245847998559    8.21867999790541    1.44457406290516
H         9.22389106917198    8.17497387332926    3.05921464316782

