147
CSD_code = ROLJAD | q = 1 | S = 0 | Stoichiometry = C72H68O2P2RhSi2(1+) | MND = 6
Rh       -2.63767063677292   -0.19158409555989    0.47089752592114
P        -2.03419933028940    0.79116023436271    2.44169462016708
P        -3.20570999042046   -2.07508597904084    1.63236522170256
Si       -1.33015011637738    0.14600030787704    7.29146584159668
Si       -4.92048770474908   -3.45057229281753    6.02049974987289
O        -1.59019075824714   -0.93387360511499    6.07364575943258
O        -3.76286777986219   -2.33800114680768    5.68345728994134
C        -1.32479370625097   -0.22066301054724    3.82537452382204
C        -2.29780592086898   -0.72186868920436    4.89330176746568
C        -3.00347749292547   -2.04453375263496    4.55749636481656
C        -3.92035681572023   -1.97754775511626    3.33721674162255
C        -3.49465424393044    1.57581327376892    3.18492662418222
C        -3.41486677107553    2.28439430921064    4.38124074147478
C        -4.56547855496248    2.78178885328231    4.96493011310090
C        -5.79555655169895    2.58452738492274    4.35530243906623
C        -5.87748418491941    1.89985935194810    3.15302175629645
C        -4.72942743378239    1.39229266166854    2.57052268168799
C        -0.79344718825422    2.12623647878902    2.38840954676636
C         0.54516412766412    1.76181309464864    2.25477978537205
C         1.52523151890448    2.73045402577001    2.15990059176672
C         1.17763026963795    4.07190054935583    2.18956160369006
C        -0.15115015998244    4.43985648953675    2.31172430166942
C        -1.13719034402707    3.47290213126404    2.40258036517609
C        -1.75431765758013   -3.15074697792959    1.81160949387881
C        -1.82991992747469   -4.39297378088176    2.43509990919900
C        -0.69192021926587   -5.17012650189684    2.55248975220119
C         0.51847122796268   -4.71757129543491    2.04926672938797
C         0.59618001044516   -3.48337022497440    1.42294781339437
C        -0.53830004749732   -2.70082276039315    1.30532204690395
C        -4.45522101787159   -3.18588033190768    0.89645831987999
C        -4.10877294112389   -4.31561986160212    0.16423091177358
C        -5.09557027947630   -5.12191798035852   -0.37622823175602
C        -6.43139090203225   -4.80288114916052   -0.20037432618355
C        -6.78311722054665   -3.66629119822918    0.51105163771266
C        -5.80134916899469   -2.85730903285216    1.05081071957345
C        -2.93015991079052    0.94240064713170    7.91404942888406
C        -2.91686312205832    2.09314907444521    8.70137892479626
C        -4.09233067344971    2.66749887307383    9.15037656993726
C        -5.31242729010937    2.09709892841545    8.82575593933630
C        -5.34590308643152    0.93898088086236    8.06776467802930
C        -4.16665008621035    0.36863966484499    7.62327172082780
C        -0.50599685690312   -0.93693759387343    8.59161990020355
C        -0.29859589229484   -0.44124602282831    9.87479063728924
C         0.28239814738042   -1.22281517947154   10.85655048892824
C         0.66684579460967   -2.52222549669592   10.56957698909549
C         0.47045058869865   -3.03047482444212    9.29657590366558
C        -0.10837401650585   -2.24257566728594    8.31856717705561
C        -0.14741375582811    1.48111258563893    6.60647428675431
C        -0.50162460026229    2.81629973798716    6.42772335195475
C         0.37726328988328    3.72550193532328    5.86400094750009
C         1.64046024675476    3.31866264508189    5.47303280262326
C         2.01749366489778    1.99760084592981    5.64819704166319
C         1.13228332804044    1.09408426004128    6.20683767187906
C        -6.61229798699025   -2.75991001950831    5.50969398554691
C        -7.73296567367098   -3.58420869833702    5.43327546167934
C        -8.97207627887302   -3.08132734572517    5.08003122142700
C        -9.11908589129087   -1.73305265465380    4.79945981862757
C        -8.02043571782720   -0.89420516816008    4.88043244211628
C        -6.78456049160934   -1.40503867390561    5.23273948050660
C        -4.57250626461063   -5.04417382201279    5.03868567203745
C        -5.25476009771747   -5.36691884278703    3.86668946496070
C        -4.92807472432820   -6.49435241999930    3.13284119955736
C        -3.90908369264148   -7.32849163639509    3.56163141083110
C        -3.22404124449223   -7.02924277763404    4.72815244931961
C        -3.55352728363322   -5.89876377616857    5.45473620943562
C        -4.73572949022979   -3.65125023900052    7.88247407586560
C        -3.62197505008240   -3.14672556009955    8.54910259048408
C        -3.48501706592562   -3.28967475230183    9.91745832221884
C        -4.46299592705362   -3.94665224459391   10.64488751203209
C        -5.57675246509482   -4.45630364056411    9.99685376830882
C        -5.71013113655426   -4.30763194041726    8.62876433376534
C        -2.66543501422623    1.78016975860655   -0.48398931467058
C        -1.47083337716435    1.17276702887878   -0.80945875440568
C        -1.16185296756796    0.57770732764288   -2.16352098614844
C        -1.48193014576537   -0.92753557203263   -2.23908661366730
C        -2.65990945479669   -1.34179725274081   -1.39494826265247
C        -3.85887729598692   -0.66676214382891   -1.30411103679452
C        -4.20587643850354    0.56036946972608   -2.11451597806893
C        -3.87528810173652    1.87278621246260   -1.37814417866659
H        -0.78172502574655   -1.07037492262441    3.40117576850770
H        -0.59806962457983    0.41319215784811    4.34485767395207
H        -3.08090705337568    0.02493581059401    5.07354061530841
H        -2.24292696187640   -2.82934296090604    4.42930347019019
H        -4.52599890646989   -1.06911777618672    3.40408283353700
H        -4.59686133215054   -2.83141676527601    3.42315769852424
H        -2.45125596349410    2.43697306474400    4.84595105507578
H        -4.50576425459662    3.31491025286784    5.90140223743508
H        -6.69059924517064    2.96942265217203    4.81921767717888
H        -6.83487352471232    1.75674973003524    2.67447659911632
H        -4.77607259948945    0.84053665224179    1.63011391385218
H         0.81098713162476    0.71311081295523    2.22542966825937
H         2.56036602416227    2.44146663395140    2.06024389496303
H         1.94235799974961    4.82933595737312    2.11390746486080
H        -0.42364072399505    5.48406098514124    2.33298989922216
H        -2.17331088643845    3.76726996532810    2.49620844081167
H        -2.77548010268227   -4.75118537401186    2.81500805157981
H        -0.75364551501627   -6.13235779493153    3.03714868053762
H         1.40254352840315   -5.32932735098012    2.14236799583603
H         1.53914846007292   -3.13598881977592    1.02807912781335
H        -0.49821136990747   -1.72535856543056    0.81751492369805
H        -3.06848397265201   -4.57789795774243    0.03087479855692
H        -4.81828226368642   -6.00379364082534   -0.93358892511338
H        -7.19821937629054   -5.43695973835161   -0.61786285757121
H        -7.82343888226650   -3.41175019633060    0.64652291284624
H        -6.07739590079306   -1.96821730957788    1.60256785134781
H        -1.97125189787334    2.54004336942244    8.97334988722483
H        -4.05798666357424    3.55962063575172    9.75887924409373
H        -6.23053361589381    2.54651809960294    9.17467873781285
H        -6.29082359453280    0.47220166443089    7.82821642127062
H        -4.20382107218928   -0.54945080453217    7.05923193530639
H        -0.60196753612195    0.56891387060010   10.10670583036723
H         0.43308480731154   -0.82140294616128   11.84792598708423
H         1.11633949590769   -3.13630485605513   11.33584566537354
H         0.76813214737388   -4.04382779758378    9.06841384381337
H        -0.26481335370342   -2.63956832139498    7.32666923171220
H        -1.47624360970176    3.15628329480844    6.74841310624151
H         0.07785312665220    4.75575354202945    5.73662398717840
H         2.33086629080601    4.02914133667753    5.04410503564792
H         3.00576001175555    1.67444647247398    5.35523827591559
H         1.43297379957936    0.06501453499541    6.34583066699268
H        -7.62819949517819   -4.63710535129663    5.65197328682543
H        -9.82640787210192   -3.73996012130573    5.02646756924647
H       -10.08617988376444   -1.33766766072859    4.52609134518781
H        -8.12791475178076    0.16174278871776    4.67564616945229
H        -5.93639516200733   -0.73785574640739    5.30410808937242
H        -6.06120029059488   -4.73217171165046    3.52278578033590
H        -5.47119167794412   -6.72090719176344    2.22665633301023
H        -3.65538033655976   -8.21056158761160    2.99263893899668
H        -2.43605097986206   -7.68223213762890    5.07440781506200
H        -3.01866772100912   -5.67097540839565    6.36569254664817
H        -2.85771274119616   -2.63176723504466    7.98858381077163
H        -2.61268756475670   -2.88731173081954   10.41232742786842
H        -4.36011159552533   -4.06130404941886   11.71379618665085
H        -6.34212112775081   -4.96901484999111   10.56088039654857
H        -6.58299398852687   -4.70328162964235    8.12998555550364
H        -2.65248397489549    2.53184257221835    0.30632730990203
H        -0.59375047133533    1.44569503686306   -0.22125983768161
H        -1.71340491701272    1.12608407207282   -2.92687481582330
H        -0.10002496025112    0.71600686003236   -2.37224882168342
H        -1.67372711075746   -1.21504203809081   -3.27758163660120
H        -0.60951029909907   -1.49631745555288   -1.90769993493934
H        -2.65329079214247   -2.40012960685719   -1.13186808526082
H        -4.71893951285934   -1.22113976955105   -0.92624938523238
H        -3.68363168086593    0.51454583343872   -3.06987819528719
H        -5.27499487749731    0.54576616219547   -2.33133350230686
H        -4.73072172557229    2.16389966667321   -0.76331594275247
H        -3.71678106152019    2.67641105765010   -2.10405721583174

