69
CSD_code = ROLMUB | q = 0 | S = 0 | Stoichiometry = C31H26ClCoN6O4 | MND = 6
C        12.13066212930528    2.05290791941483    0.01312620875905
C        13.52737426446875    1.77991943958694    0.27010476973203
C        11.61524577000960    2.50752413189620   -1.28573825607350
C        10.65111673189300    3.50985862889472   -1.34233161699607
H        10.29393845678604    3.95436302935139   -0.42656311658422
C        10.16463174739469    3.93683101644945   -2.56376338416734
H         9.42164918607834    4.71982297023769   -2.59983040441797
C        10.62680518290044    3.36477217553939   -3.73702968376520
H        10.24563731865229    3.69976848970086   -4.69055080288854
C        11.57548992372271    2.35646846889828   -3.68540622224180
H        11.93225953804371    1.90137553531640   -4.59796873396537
C        12.06826742593941    1.92631009753737   -2.46842967600293
H        12.79975681269073    1.13239860571320   -2.43104057774775
C        14.59298982103629    2.08071152785547   -0.69403114463689
C        14.58964939182964    3.30296305793382   -1.36509833081012
H        13.81340597175738    4.02315531638089   -1.15682453203804
C        15.58595999175423    3.59787903867944   -2.27477027944638
H        15.57644316329237    4.54759611185344   -2.78907174282143
C        16.59599018233505    2.68287889380298   -2.52599909755102
H        17.37150347207202    2.91494606016420   -3.24125625057240
C        16.61314887390975    1.47463578056057   -1.85084132310759
H        17.40425806854996    0.76244088542322   -2.03608806811581
C        15.62064842111276    1.17360405192560   -0.93630992138168
H        15.63966417003263    0.23357401588648   -0.40674475515885
C        10.96819795253421    0.82605660650706    4.95798780541948
C        12.37614008943006    0.56854191521571    5.22637031122469
C         9.94956646878137    0.71552826863896    6.01333961647372
C         9.00653692318991    1.72369291726869    6.19230631321209
H         9.03149123121802    2.59576882308540    5.55767972254179
C         8.05606292958646    1.61166322677620    7.19006485728070
H         7.33209418413132    2.40038445440459    7.32972698816619
C         8.02928399442047    0.49315174291586    8.00615809108109
H         7.28432065731446    0.40732516712144    8.78323687076193
C         8.95716860834867   -0.51903469324397    7.82204203838784
H         8.93495237237880   -1.39619327277382    8.45178644188350
C         9.91585795006138   -0.41046040359509    6.83319279428346
H        10.63350889807265   -1.20434231797704    6.68527464314208
C        12.86307194051136    0.33008216900868    6.59301298295776
C        12.47442697607762    1.18026880361739    7.62631991365993
H        11.83785997475211    2.02524345614744    7.41294599948903
C        12.92481765628978    0.95661388772616    8.91308134818969
H        12.62304834015528    1.62182777180064    9.70822547969457
C        13.75985271138055   -0.11538176303820    9.18378188542347
H        14.10570127120798   -0.29061965011109   10.19168468197710
C        14.15699607527663   -0.95672463880183    8.15842820113554
H        14.81447493212323   -1.78849267298444    8.36415794177126
C        13.71694873089533   -0.73473591495090    6.86682467027462
H        14.02785291117650   -1.39160370601870    6.06874634694821
C        10.79647480433242   -1.29587509648731    1.60861565357917
H         9.87139270585789   -0.75587316047943    1.57611577865813
C        11.04295488953500   -2.60007819712143    1.30379484688861
H        10.38968164332815   -3.38248013643789    0.98006275309032
C        12.90390709094317   -1.61710172415260    1.89090583066838
H        13.94499404525501   -1.45964020139764    2.09934238697338
N        11.35669191525395    1.76230214266182    1.01688792364078
N        13.73268546346181    1.24885216078181    1.43968403575297
N        10.70702675406188    1.11096010898786    3.72596183355828
N        13.12501841825253    0.59626772792016    4.17463317096679
N        11.96615713566358   -0.69855687682010    1.97302265720857
N        12.38175837528447   -2.78649174625646    1.48793543671169
O        10.07401259464562    1.81107666226750    0.97144158070915
O        14.87452992589172    0.81956467243801    1.85090516119727
O         9.43599873645464    1.32313575380635    3.34809062607079
O        14.44685141950477    0.37007106105977    4.29002115485990
Co       12.23360986141354    1.15616949707539    2.52871173179006
Cl       12.55788557342066    3.22758414972446    3.10529336935977
H        14.81401314697415    0.57653565478343    3.33276623796839
H         9.52367829659328    1.58769691410260    2.33422879783426
H        12.88864740901817   -3.64478479217260    1.34286002915164

