40
CSD_code = ROLNAI | q = 0 | S = 0 | Stoichiometry = C14H17N5OS2Zn | MND = 5
Zn        5.90303348759050    2.45546745344452    3.17862711634308
S         3.51608061218825    1.46601024788226    0.08801389460222
S         9.05935069483743    5.44773446654147    4.35919213130681
O         8.24077877093578   -0.01771015153874    5.68310629518721
N         5.10441324234368    4.23561749559007    2.14566747150231
N         3.86053999858619    2.35310606617042    3.50577948680868
N         5.73117567529184    0.52012584807408    4.39055992841184
N         5.88256549526334    1.52324638936935    1.50165281924605
N         7.31889021818702    3.36092877219780    3.92919507416631
C         3.79986178583059    4.06556129174654    1.90853421952511
C         3.09352998312165    4.88197366751732    1.02823932014427
H         2.04295112917938    4.70804360362348    0.85465684353795
C         3.77226212127801    5.89865351179860    0.37930327699188
H         3.25582867145267    6.54487757342286   -0.31440924076019
C         5.12512904343499    6.06873397997800    0.63412907936979
H         5.68965652816184    6.84855866147920    0.14891757150214
C         5.74870062753448    5.20796733180814    1.52727584595566
H         6.80041658188311    5.29972279354053    1.75935926756257
C         3.17571524347570    2.96688242089537    2.62924140477814
H         2.13279992753658    2.73021184854197    2.41605727218943
C         3.35684241459239    1.22723320096267    4.22365086588884
H         2.37521386571139    0.90092512806796    3.85529062244128
H         3.26193177668086    1.51219700118718    5.27653532231034
C         4.36881208485192    0.08641872853943    4.07829300049420
H         4.06432013082768   -0.75643230778715    4.71598218473044
H         4.35528816797557   -0.24384452359675    3.03728901426616
C         5.91012369469903    0.63981132078211    5.84319950101223
H         5.62920255085802   -0.30889465113803    6.32779897013407
H         5.27587493391768    1.43988313483033    6.22558220530740
C         7.36541996862564    0.95870683948539    6.19191214934091
H         7.62829795449688    1.94659269866954    5.79179304764903
H         7.49819857275569    0.95715595770199    7.27544332747312
C         8.10324536569325   -0.10574304120446    4.28555975643431
H         8.80573194238398   -0.87172134347632    3.95333738179186
H         8.35503359590904    0.85537538888308    3.81377144290430
C         6.67689015434460   -0.49340807747901    3.90476829946849
H         6.59669243663373   -0.56208677648244    2.81968614254648
H         6.44031275628831   -1.47052962056570    4.35283522849479
C         4.90357015870411    1.48075356658611    0.84997612344715
C         8.05911763593128    4.26899410393415    4.09459633549158

