53
CSD_code = ROLPOY | q = 0 | S = 0 | Stoichiometry = C24H20Cl2N4NiO2 | MND = 6
Ni        2.41986796373712    0.19726243198445    3.38708347935175
Cl        2.83957512472250   -0.25596134850309    5.37427063402415
Cl        4.37141261108764    1.22136101609750    3.03177781775622
O         3.14946710809923   -2.82968489855749    3.79680832894104
H         3.11349910101304   -2.36965070224831    4.67318285758408
O         2.45167832327318    3.37670282171400    3.79513195538969
H         3.33545201669309    2.96875686201941    3.56713281925399
N         2.67068980133851   -1.88032932807697    2.94015415801873
N         2.11906745316626    0.26668417183935    1.55703543516195
N         1.66606913740616    2.28291769907550    3.99042197539658
N         0.26196991823138    0.06686776405612    3.86203010445661
C         1.71648493131433    1.33521893256693    0.88303817063598
H         1.58566365034709    2.24770229955799    1.44774970619934
C         1.48370926369702    1.32144465960800   -0.48066180330674
H         1.16424718237601    2.22110082019366   -0.98103302159205
C         1.67220012470086    0.13650544819554   -1.17794528200851
H         1.49247103830430    0.08473998820605   -2.24090181685204
C         2.10182824605509   -0.97717073515108   -0.48359053136949
H         2.26043512595965   -1.91966790533719   -0.98402610456623
C         2.33230018457726   -0.88454089495342    0.88896224937609
C         2.82738855601708   -2.02099900517390    1.66852293698307
C         3.48711689137563   -3.16197183347598    1.01521196968403
C         3.16547837798391   -4.46662048936229    1.37956388065493
H         2.41164181971329   -4.64258085189164    2.13153380038494
C         3.80457842491061   -5.53289698873918    0.77453271284724
H         3.54603370980087   -6.54223742914933    1.05800702759558
C         4.77679659708195   -5.30926855538255   -0.18584372239030
H         5.27828548760172   -6.14380234508056   -0.65288030002611
C         5.11285427095121   -4.01259354900657   -0.54029162450291
H         5.88038840160207   -3.83460928541595   -1.27887080753372
C         4.47124344446447   -2.94195893748015    0.05270874168403
H         4.74934159266903   -1.93050484668984   -0.20640013141919
C        -0.33325395040382   -1.10783362515867    3.99930880479758
H         0.13398230806950   -1.94084313824725    3.49038718366510
C        -1.48733061598956   -1.29217612605604    4.74310472118280
H        -1.93319360236423   -2.27066295271553    4.82285399541672
C        -2.04053723091446   -0.19537234192834    5.38559477645919
H        -2.92850877444261   -0.29927937635136    5.99113525772443
C        -1.43019742505280    1.03672692720995    5.24240783681585
H        -1.81985869656110    1.91214781794838    5.73791830312377
C        -0.27833391258318    1.13592232110894    4.46351137414235
C         0.43141887472583    2.41478410160665    4.30540959571059
C        -0.27739768871366    3.68855749787565    4.50935029845888
C        -1.52841013871514    3.89113409984169    3.92847480563045
H        -1.97470317707544    3.10670936473639    3.33270314392169
C        -2.18573433506867    5.09528591966590    4.09504815783728
H        -3.15246455710128    5.24694320372669    3.63734235494243
C        -1.60728611713005    6.10477552119208    4.84767625046097
H        -2.12504784267121    7.04324142409502    4.97985052091617
C        -0.36406751318961    5.90945955682461    5.42570606990511
H         0.08928246572867    6.69530362134499    6.01106317442487
C         0.30420210100088    4.71123220941190    5.25368804560797
H         1.27280394817815    4.55842898842827    5.70304971302893

