37
CSD_code = ROLQUE | q = 0 | S = 0 | Stoichiometry = C15H12CoN3O3S3 | MND = 6
Co        2.34620478795312    8.40070620113614   10.36752002400003
S         0.55890758529647    9.32448160222613   11.41678788082516
O         2.58142328575483   10.11959829408684    9.54654845752405
N         1.61404230939836   10.99804078129299    9.67140511839165
C         1.68639075752474   12.12271441273731    8.94344213158803
H         2.54371949157479   12.18657436548955    8.29137031352219
C         0.73087598867778   13.10209164054353    9.04202843255882
H         0.81712014389841   13.99297445546891    8.44306726674288
C        -0.33694195904643   12.91981500843866    9.92258282743235
H        -1.10039501231112   13.67492038182262   10.01982567917554
C        -0.40096737882314   11.76376396856988   10.66095444577411
H        -1.20269253770946   11.57196797564746   11.35485132397133
C         0.58689712904062   10.78005161420429   10.53294549739162
S         2.03968747341249    6.30093182718275   11.17020367055715
O         1.14429400649334    7.89429961277433    8.95918621910263
N         0.80285881119167    6.63041723700185    8.86255023166219
C         0.09545698496507    6.25009205087112    7.78774503769545
H        -0.11009044091172    7.03695333033857    7.07855601361420
C        -0.32422111337542    4.95385397256844    7.62900358036702
H        -0.89016482682344    4.68029914063371    6.75451486802358
C        -0.00649038350413    4.01445935681774    8.61168064987610
H        -0.32574856565269    2.98950310867851    8.51161383963889
C         0.71936490550527    4.41545803253936    9.70615364638559
H         0.99126836917050    3.73219580316554   10.49372024072873
C         1.13727936425332    5.74530927660463    9.83697607270088
S         3.88998731854068    9.02670121976931   11.90663972080663
O         3.82677768347900    7.70885034328740    9.36011134347402
N         5.04116520537692    7.99542510064330    9.76818933447226
C         6.06919966670846    7.64391449169980    8.98083499672949
H         5.78860113869614    7.16659611279517    8.05469522672750
C         7.36841226169696    7.88231120940377    9.35075391950407
H         8.17140167248623    7.58819066437818    8.69610584695246
C         7.62036114817071    8.50342285754406   10.57540466865515
H         8.63254284969516    8.70032603933170   10.89037159887635
C         6.55994793700749    8.86005270504569   11.37157824330125
H         6.69764413554785    9.34105156821080   12.32586996488606
C         5.24467980664615    8.60718423705413   10.96361166636430

