105
CSD_code = ROLSET | q = 0 | S = 0 | Stoichiometry = C44H56Br2N2Ni | MND = 4
Br        6.16755853940515   13.79443335828715    9.64009137862647
Br        8.71550896761219   14.58921136107098   11.32211685888864
Ni        6.76118713180781   13.64132883241161   11.77846246051683
N         7.28240790730834   12.90000547627131   13.57054511304372
N         4.87713254835574   13.50700242631923   12.51402919550145
C         6.08447535877297    8.27312504360160   13.64623503623436
H         6.04394457480439    7.95753858754817   12.60663301388076
H         5.29121329691545    8.99984516721566   13.81564485497027
H         5.88819652267706    7.40600203707632   14.27283305395045
C         7.44344085354091    8.87565619570615   13.98309700246139
H         8.21763400790775    8.11739853643742   13.85492993258844
H         7.44264135037342    9.17440160830352   15.03532012460293
C         7.76607425229160   10.09936385983107   13.11001006846318
H         6.82627164257439   10.64497993383330   12.96485829078966
C         8.27252405893438    9.69994916414846   11.71611335019281
H         7.51852783866749    9.07526301538038   11.23228298584045
H         9.18602926765888    9.10931394947166   11.81045593539819
C         8.54639398929429   10.92536165257531   10.85551020183700
H         8.70553192496736   10.65030814097935    9.81617498103834
H         9.42415449724299   11.46331044038539   11.20882655510578
H         7.68120927271984   11.60590183570526   10.89239988767395
C         8.77104699156960   11.00475084991679   13.78376027214423
C        10.00284553711164   10.50339882264001   14.17672399792148
H        10.22257991010921    9.45936234826343   14.01499476455018
C        10.94733196700068   11.32039114033514   14.76871577243358
H        11.90168689936887   10.91220664013228   15.06587940515542
C        10.67214680330136   12.65849002666724   14.98173289567984
H        11.41444651875676   13.28729325710021   15.44515140076112
C         9.45373627835313   13.20526654823195   14.60739834122854
C         8.51174445575172   12.36640253783661   13.99902023871608
C         9.11244231606415   14.64919627310750   14.88004045220131
H         8.35934857052021   14.95239810563532   14.14425470493403
C        10.31450314759731   15.58134657001892   14.67924346207749
H        10.95367056716581   15.57805164519716   15.56291185184348
H        10.89558926432023   15.21313670521774   13.83222712522560
C         9.88172905805463   17.00987500758147   14.37129982471106
H         9.31742870198754   17.03397130071102   13.44253115814505
H        10.75469833512535   17.64676512125795   14.25330595043720
H         9.26593035755183   17.42143993379928   15.16825825135635
C         8.45468879136089   14.80771313689814   16.26556192823558
H         8.25151654925305   15.86793972023766   16.42683857287572
H         7.48941313890503   14.29239219718853   16.26021171891288
C         9.27889566815735   14.27625172116830   17.43170468415018
H        10.22296418730997   14.80716455098154   17.51815487383904
H         9.49044414099252   13.21625305646823   17.30976571059153
H         8.73010703254996   14.41049710073085   18.36189493658141
C         6.22581012156490   12.70515333992448   14.27810883246896
C         5.99452827042349   12.14703087507970   15.60383778160291
C         6.76987097797109   11.53846501370878   16.56119279097740
H         7.81788781574950   11.33651156301038   16.40079480702332
C         6.16600068271529   11.18476255876109   17.78127701698564
H         6.77801329952483   10.70096432303025   18.52823780389251
C         4.84488887943644   11.44020085530330   18.06040205065507
H         4.42745674607537   11.16102120890958   19.01657461039900
C         4.02218730801303   12.07794293945195   17.10483698237537
C         4.62896215429888   12.39726949650562   15.88693049719423
C         2.66452321558463   12.44789241176415   17.23826818151117
H         2.14200082517469   12.22207197166551   18.15604156773108
C         2.01935760741998   13.10450135905380   16.21882776607994
H         0.98787805555089   13.39687662518132   16.35019473550326
C         2.64268810198961   13.41263737717506   14.99506633752395
H         2.09490835588484   13.94305854868565   14.22996050774574
C         3.95146537267932   13.03535029288848   14.81908014072598
C         4.93498523217447   13.15504543588647   13.74922232821376
C         3.65614671823851   13.83023410295895   11.90863763336498
C         2.70575301380697   12.82723301748831   11.66251781289342
C         2.89776598719022   11.38622221346700   12.08107693131275
H         3.82554060515029   11.29132390377905   12.65524338888167
C         1.73877723901664   10.92623885413951   12.98797192447233
H         1.35676837933493   11.77468791150102   13.55939380966787
H         0.92139802322685   10.55572796912019   12.36700687234396
C         2.16262173001023    9.83509973446679   13.96394717117948
H         2.55785322598098    8.96999773436604   13.43648391120646
H         1.31277858884964    9.50999773087186   14.55996128918908
H         2.92944543748932   10.20405740642626   14.64434290419422
C         3.01917420038124   10.45532089349958   10.86485817409774
H         3.03258640234643    9.42321715073792   11.22418115829084
H         2.14187419381927   10.57388846398656   10.22639721600832
C         4.27382026605212   10.72116198963724   10.04713784010169
H         4.37452427180128    9.98570561868391    9.25268860667312
H         5.16182439424958   10.66433995186615   10.67500790842855
H         4.23495194138676   11.70730238368629    9.59315003995727
C         1.53915002826249   13.19264235764621   11.00523562438913
H         0.79645872602254   12.43818338708339   10.79635342499944
C         1.30888778619383   14.50036617176756   10.62641824466354
H         0.38907875299547   14.76106861080395   10.12484251063802
C         2.24984600676488   15.47937191680937   10.89094243036277
H         2.04635329061445   16.49568332409530   10.59736666482921
C         3.44169155465159   15.16481241244758   11.52139436648861
C         4.48417104731444   16.19758013203359   11.88741299129813
H         5.48017544238947   15.72854621272997   11.75314147437207
C         4.35575017049859   16.56960012331950   13.38022995364545
H         3.66010355887744   17.40620343916060   13.47927662705065
H         3.93115000915227   15.73296150208116   13.94171422008524
C         5.69976002013665   16.93712998577966   13.99692917888044
H         6.13806175692650   17.79880402601387   13.50009087629151
H         6.39729916340158   16.10448387990543   13.90382538720158
H         5.58802359491343   17.16953185115513   15.05413195710938
C         4.46715250078095   17.45878584044768   11.02052949569757
H         3.49107140911168   17.94429133500163   11.09206509151989
H         5.20032787106167   18.15778259831350   11.42905054375920
C         4.81526361071331   17.18412732876808    9.56318758054314
H         4.73543843265621   18.09764079098328    8.97866735775408
H         4.15303577477838   16.43657802687578    9.13436345229510
H         5.83343885912886   16.81475658018801    9.47881863892485

