42
CSD_code = ROLSUH | q = 0 | S = 0 | Stoichiometry = C19H12BrCl2F2N2O3Re | MND = 6
Re        2.46651109869360    4.34382005274156    2.02336814391239
Br        3.64808495385474    2.19303946788746    2.82570795975447
Cl        0.27569074841420    3.60946623887071   -3.09881440803068
Cl        7.12605063598899    7.95256951272375    6.18118366893391
F        -0.21732221448907    3.96571833507015   -0.22794413401561
F         5.03193082728347    5.92448217434918    6.49557182824304
O         0.82605565794358    6.74179410219141    0.98301400624133
O         3.26972893667513    3.22448728980483   -0.73987064112006
O         5.27321507772746    5.63209986881246    1.90347755071629
N         0.61463285743802    3.20194457088158    2.45812235470321
N         2.14157170817587    4.74912470863293    4.18125064563388
C         1.43815531957364    5.85579497703480    1.37688960248247
C         2.88060053983615    3.67322953519141    0.24045509780762
C         4.20381056342262    5.22181912689011    1.94263932614219
C         0.28362141149739    2.75658884820087   -0.54189634723489
C         0.55609149421354    2.44140282974370   -1.86657295239152
C         1.07329967028058    1.19039709907264   -2.17101317107325
H         1.30602861888308    0.95293876764927   -3.19632533491718
C         1.28987286471691    0.26587318558490   -1.16321498594435
H         1.69995588070018   -0.70127965149775   -1.40704310036174
C         0.98607102641159    0.56977280269731    0.15055820690286
H         1.16793707781438   -0.14641690996359    0.93669839445395
C         0.49120219778951    1.82902359711779    0.47842195382948
C         0.15406657885671    2.18329640626930    1.85766734546682
H        -0.55401230811813    1.51567296910267    2.35773492307007
C         0.10172043953624    3.50559379559701    3.77444550861836
H        -0.54827182150486    2.70661614241057    4.15439349950291
H        -0.48503056801107    4.42980658487883    3.68934552879960
C         1.26847514349233    3.73555966129441    4.73492297400410
H         0.89686232267367    4.01487248745478    5.72773842917581
H         1.83946510592046    2.80051447354791    4.82859490671094
C         2.76903214004756    5.48355057808752    5.01234123424900
H         2.65647312418568    5.29894336426712    6.08406389672794
C         3.67793817838483    6.57003976084504    4.67509011116145
C         4.81393495250226    6.75808764779299    5.46659906693526
C         5.72303329882845    7.77253007123051    5.19855557044888
C         5.48068817038061    8.63820811267047    4.14087136970130
H         6.18724934308813    9.42510184415999    3.93230811871015
C         4.33726954286355    8.48913743723809    3.37464556501179
H         4.14431564974841    9.17447907012570    2.56488441896645
C         3.44412537277832    7.46683161747175    3.63170528258518
H         2.54516838141226    7.36946744566399    3.04392858545580

