118
CSD_code = ROLTIY | q = 0 | S = 0 | Stoichiometry = C40H66B2N8NiO | MND = 5
Ni        7.24642367365902    3.42859695922304   21.78364936225352
O         5.18573351781835    2.53717138447484   21.57751800874961
H         4.42011457490736    2.69680331506164   22.12332331840716
N         7.95141048102120    4.52706752153021   24.32424835666123
N         6.98938123977219    3.28403687618078   19.89064231345796
N         5.99811821150641    2.53304174844618   19.36882279153767
N         6.96874440026971    5.43004832011462   21.86729837754614
N         7.74321866095123    6.21233434625626   22.64177602331517
N         8.30164814310957    1.68018203693094   21.64140438116095
N         7.44170430631046    3.47801158849150   23.66341311446803
N         7.98009884771601    0.75830533882956   20.73067450492216
H         7.10336527822901    0.82830071597409   20.22851213337085
C         7.64690601881612    4.42446661801272   25.61721862890969
H         7.90399806687380    5.18614574319029   26.32268153663395
C         6.02710463635768    6.20130768527461   21.31253009572107
C         7.82030147791149    3.62894059120870   18.90416047679119
C         6.95720148415976    3.24705388389763   25.81803582243804
H         6.58337273522021    2.86414261558160   26.74516322280497
C         6.84772135355917    2.67134171650680   24.55247293891632
C         6.21086267977204    7.51636863594128   21.73634535100186
H         5.62882108263037    8.37514611968637   21.47297201598794
C         7.29417055392275    7.46661352769313   22.58597866735849
H         7.73158567024788    8.25463162024676   23.16034675789486
C         6.20262523203442    2.40829689844191   18.05455690037012
H         5.54022927401022    1.85306368335557   17.42674038367830
C         4.61141463182979    0.37124208795741   20.26838473247796
H         5.51037535962229   -0.16307025237134   20.61144537029263
C         3.32239692459273    2.53475430228563   19.71355467809564
H         3.28533843709600    3.62131159715764   19.58190493175196
C         7.35287887890732    3.08761908704851   17.70879017916222
H         7.78677489076830    3.17816194371828   16.73435484186922
C         4.27140183968916   -0.20724452236567   18.89056155289059
H         4.08021261971477   -1.28347711047903   18.97864716010846
H         5.15191916970468   -0.10218402627744   18.24918620906913
C         9.57014417425973    6.67316509934014   24.56774926240319
H         8.87429556125002    7.25823615087265   25.18506541822818
C        10.29229508539379    3.53636970370856   18.93502604771468
H        10.26605670054965    2.68963942381516   19.61770809423880
H        11.19873952868959    4.10423995064486   19.12811658164113
H        10.33097825017387    3.15937724691778   17.91492027072910
C         4.84743476371198    1.23113882989723   24.88349387589849
H         4.92699235318345    1.25958337369091   25.96769179279616
H         4.37561339061971    0.29149099508263   24.60442978427136
H         4.20579682160796    2.05042947135259   24.56697747942623
C         4.91612341630057    5.69371821468362   20.45538297686770
H         4.94493323107679    4.60551396205640   20.49677253177336
C         6.22923739755625    1.34474633621960   24.23636714169128
H         6.12441524793903    1.26037158194921   23.15116522497589
C         9.06153298737354    4.42566221463112   19.13188434983607
H         9.03584891274850    4.76959614088833   20.16989322213017
C         3.06514176635797    0.43162184132350   18.19572396374033
H         3.11305403020092    0.19020830343073   17.12812046148205
H         2.15587199648936   -0.03762581516443   18.56747810037088
C        10.37438634957370    7.69617794275802   23.74042379767432
H         9.68390622671612    8.34714080531438   23.20474642217343
H        10.94515554763712    8.33660048876244   24.42132651388717
C        10.02595549361432    4.87984322831506   22.79021333448426
H         9.63686364920618    4.11517969166247   22.09406366839883
C         9.12309008944241    5.64367377903809   18.21099088197325
H         9.11817739697319    5.34037069189909   17.16650055090503
H        10.03381120810085    6.20676194579968   18.40144509065974
H         8.27299517784392    6.29882353318955   18.38607269662025
C         2.26976088162091    2.20249101902355   20.78369041655316
H         2.49173672854941    2.78702848123066   21.68326745863724
H         1.28051450784286    2.52611417358268   20.44243877939614
C         3.54927786311047    0.03929892451141   21.33234680208114
H         3.38775144236062   -1.04420670078400   21.36780639232937
H         3.96310801985523    0.33453195451945   22.29849535384236
C         2.94461237199216    1.95291732308332   18.34364637178739
H         1.91095055315606    2.23060354165543   18.10869659913332
H         3.56862739104538    2.44132884614415   17.59215867742310
C         8.89595264389666   -0.22076270267005   20.65396908648652
C        10.51166074351609    5.94939732698347   25.55006081197352
H        11.06865725333304    6.69421570874812   26.12827195164075
H         9.91666204250725    5.37924472471046   26.26349837813821
C         9.44778338934064    1.28273414606347   22.17596382396790
H         9.93645172363876    1.84625279607161   22.94359635007202
C         2.19080047306202    0.72076326002719   21.15577980671178
H         1.61141765757683    0.19099803467520   20.40228036531005
H         1.63300195571221    0.62404220384998   22.09364240554846
C         9.86843697399246    0.09098612424944   21.58569350240250
H        10.75829935792141   -0.46103579821488   21.80589465545034
C        11.34185771708008    7.10438942533105   22.71248221754987
H        12.27580861525339    6.82346679011301   23.19346755399902
H        11.59845643272950    7.88947991945083   21.99322856293452
B         8.81184038686654    5.60467838233610   23.59424693937668
C         5.08354341300688    6.14445402413099   19.00363033364022
H         5.09736438923512    7.23065559121895   18.93784984520857
H         4.25956462263453    5.77180342201045   18.39899515663137
H         6.01160659108071    5.75866139218974   18.58964853260408
C        10.92221527962063    4.13312401629365   23.78924015842274
H        10.31123282826414    3.36004820163014   24.26569949858523
H        11.74300396400504    3.63400895493873   23.26194842481440
B         4.78843366073367    2.01156857200692   20.24309933949328
C        11.51561037389320    4.98915341877727   24.90857974715993
H        12.37823666598104    5.53842067966615   24.53967063021214
H        11.89531847292419    4.31880089083376   25.68727716260942
C         7.74260046269832   -2.36799505897591   20.15872066405075
H         7.96681660289989   -2.71823851516774   21.16365010298263
H         7.72632989071934   -3.22426295797702   19.48941132629454
H         6.75351287241585   -1.91676644242734   20.16057387215560
C        10.77324226071128    5.91474217481830   21.93888558247840
H        10.06755674483141    6.30791381538242   21.20298407505308
H        11.59011499941492    5.43451808898929   21.38998838298382
C         8.79736717960120   -1.35973943319451   19.69367770618600
H         9.77222278159582   -1.85842554690380   19.68041611125691
C         3.57265029566918    6.16953342743903   21.01465697687392
H         3.47506055774911    5.88718820101855   22.06062289319702
H         2.75257065515988    5.72082127044290   20.45865001791922
H         3.48306302171940    7.25073802412158   20.94033340402882
C         7.13912429906005    0.21699853475942   24.73240464667124
H         8.11953855711293    0.28049765157823   24.26587220940594
H         6.70211643924727   -0.74930429029651   24.48965950553584
H         7.26707341712294    0.27664833875796   25.81123716545782
C         8.48317894590375   -0.84977435255501   18.28545082632971
H         7.48513316081399   -0.42036089397527   18.24102842150543
H         8.53126330792185   -1.67007603763721   17.57392635560954
H         9.19978505293176   -0.08880079585577   17.98442298477259

