25
CSD_code = ROLVOD | q = 0 | S = 0 | Stoichiometry = C10H8N2NiO2S2 | MND = 4
Ni        9.35310284730808    3.61112286499037    9.76775425422639
S         8.62977679925428    5.59568814626431   10.18426891695728
S        11.33202503669324    4.24296577974318    9.20254132808816
O         7.63191126175903    2.98510136691720   10.25631118753500
O         9.92013108349907    1.83836648336304    9.40652170809118
N         6.72010255385570    3.85421183712836   10.62158131246442
C         5.49880291535641    3.41586975093491   10.96379807292467
H         5.36408081848792    2.34676947443091   10.90938363953831
C         4.51843470513275    4.29437838375681   11.34894847443882
H         3.54510935607241    3.92090258218998   11.61906356195190
C         4.80210472663114    5.66197002041598   11.38324518068466
H         4.04363252543445    6.36729717023026   11.68236113813609
C         6.05729895947250    6.09607935047732   11.03151683010839
H         6.32711626475142    7.13909469192020   11.04110336152354
C         7.03372662637610    5.17335086916390   10.64383497821536
N        11.14707392066779    1.63689806148632    8.98922001160463
C        11.55083563223147    0.38455236370964    8.72567666367879
H        10.80623711115776   -0.37982973027584    8.88475946343227
C        12.82584896540028    0.13418846174815    8.28650909825143
H        13.12859231535552   -0.87855302930885    8.08025292235535
C        13.71069653339081    1.20158169040763    8.11429750667382
H        14.71668497900184    1.02375973165930    7.76995100820727
C        13.28350954220075    2.47833595972453    8.38827701135029
H        13.92555354676639    3.33564126272150    8.27178446563862
C        11.97641097374328    2.69845645620078    8.83343790392336

