71
CSD_code = ROLWAR | q = 0 | S = 0 | Stoichiometry = C36H30As2Br2Pd | MND = 4
Pd        2.78615832278633    9.77255107327249    4.52422493441790
As        1.86572640656621    8.04913432043318    5.83065551800755
C         2.92960529977725    6.54501024620113    5.22284699373926
C         2.94919013002822    5.32476351908149    5.89219116135883
H         2.35590289429197    5.20323846956288    6.79405328493505
C         3.73142375384725    4.28598091528921    5.42131930740238
H         3.74262600343430    3.34055034641476    5.94439218221836
C         4.50402457414559    4.45775355811692    4.28343898357125
H         5.11544626292980    3.64522479767667    3.91961270269356
C         4.49948055417039    5.67087076203061    3.61641629036068
H         5.10679623423985    5.80690349865147    2.73323381341898
C         3.71555973151546    6.71029369539541    4.08571650932077
H         3.72100487606596    7.67368830194531    3.54818588830823
C         0.01697673425113    7.51101345100051    5.53977593616695
C        -0.37505420262863    6.20263662703534    5.29862325707740
H         0.37034494998622    5.41655105531400    5.24945132673434
C        -1.71398080642333    5.90723595954553    5.10432579897299
H        -2.01553654233847    4.88778088316452    4.91151403657512
C        -2.66327263210353    6.91378235985448    5.14798452999708
H        -3.70569015474274    6.67892151631372    4.99121787701919
C        -2.27704975312757    8.22428289871685    5.37787560606593
H        -3.01541818759890    9.01244937389986    5.39725044772875
C        -0.94080215535329    8.52036973038110    5.56877188917125
H        -0.62057044396570    9.55160590730858    5.72109190141355
C         1.99631622171840    7.87545285667758    7.76611103465119
C         0.88928244565325    8.11586279954559    8.57358692200293
H        -0.06258579486550    8.37088377824705    8.11661366805000
C         0.99795901001643    8.02378182404892    9.95030145406068
H         0.13304674970711    8.20865909095023   10.57106267142194
C         2.21314798096331    7.70010313962563   10.53003670961950
H         2.29727579046642    7.63261793445134   11.60463021618768
C         3.32112726809814    7.46870033046548    9.73164890629751
H         4.27180115288007    7.22312078792315   10.18124292595965
C         3.21635282991099    7.55885760135856    8.35571233581601
H         4.08716265163909    7.38980903414430    7.73148550564702
Br        4.49119496765072   10.07181980106394    6.21416862216809
As        3.70655800338858   11.49589834302821    3.21760831461239
C         2.64260185458050   12.99990284476617    3.82550669283465
C         2.62299078268272   14.22015985592799    3.15619288286966
H         3.21626940450809   14.34171070130452    2.25432818044424
C         1.84075964239904   15.25891346264341    3.62712045991238
H         1.82951792364934   16.20435594960466    3.10407531282038
C         1.06820905136660   15.08709660514140    4.76502900358209
H         0.45680451793055   15.89961834211256    5.12890150178551
C         1.07276597274308   13.87395642296557    5.43201067069648
H         0.46546029760371   13.73790471169852    6.31520096133159
C         1.85667907156788   12.83455775976761    4.96264714097762
H         1.85125436456721   11.87112382338547    5.50011234847737
C         5.55527611142992   12.03398826261626    3.50850436834431
C         5.94726014729514   13.34237618098001    3.74964135993247
H         5.20180898422716   14.12841187243419    3.79884549236161
C         7.28617812624590   13.63782433885718    3.94388409558662
H         7.58769122474439   14.65728948394147    4.13669789127387
C         8.23549673648539   12.63130279852547    3.90019670267708
H         9.27791062654687   12.86619789639900    4.05691471696810
C         7.84931205368134   11.32078414217191    3.67034510412608
H         8.58770043813282   10.53263672498889    3.65099065723447
C         6.51307100246737   11.02465166546876    3.47948702152546
H         6.19286374462113    9.99340218541034    3.32719896509952
C         3.57587081617223   11.66957996116564    1.28216399473544
C         4.68290122290904   11.42922828025185    0.47467587480166
H         5.63478672683913   11.17424539576289    0.93163714075389
C         4.57420745772542   11.52132446571954   -0.90203372022077
H         5.43911914621768   11.33647707430102   -1.52280600592519
C         3.35899531582722   11.84495839301798   -1.48175289848855
H         3.27483407618371   11.91237444158908   -2.55634711539438
C         2.25104169411924   12.07639915081387   -0.68334130611286
H         1.30036992737735   12.32199674803739   -1.13292697956313
C         2.35583683425671   11.98623559754610    0.69259257634098
H         1.48503976877874   12.15533011260042    1.31682320733711
Br        1.08108380713670    9.47302376002557    2.83390423764768

