101
CSD_code = ROLXUM | q = 0 | S = 0 | Stoichiometry = C50H38N8NiO4 | MND = 6
Ni        9.25220322061539    3.76572330703065    6.74711363249127
N         8.41446776338742    3.39542568804992    5.14040184181936
N         7.73524290972965    2.32527871737724    7.47393281620418
N        10.08687298373716    4.03303491645578    8.34416493061217
N        10.75092957641505    2.36492720360271    6.46543294613769
N         5.02054160577633    3.07658253745043    3.95042367666430
N         8.15594936986310    0.97784364606668    3.97025510805138
N        12.45081568671696    5.17946039507829    9.90421068883701
N        10.49369683235794    1.94152402511102   10.02700864280343
O        10.56441561417521    5.10738244045494    5.72161727140443
O         7.77574342529758    5.05815797708676    7.24421927463752
O        13.65130221826977    7.31743234660569    4.51730252718642
O         3.97719639485600    6.25949969551243    7.78837982606502
C        12.59321224922998    6.77135189223806    4.75683711681236
H        12.02189946741356    7.02011075504906    5.67121824534311
C        11.92915543115801    5.78349412405115    3.92815247918446
C        12.32165915749919    5.59616685944931    2.61398693695282
H        13.17503688775065    6.15872267642915    2.25994757407488
C        11.63345103404373    4.74840949886883    1.74929542933657
C        12.09216488779175    4.57659927731634    0.33148587120912
H        12.12287470182323    5.53836054877907   -0.17890475424629
H        11.42451174788323    3.91486133470168   -0.21479359251616
H        13.09679637663368    4.15546387673187    0.30527235754201
C        10.50972354702437    4.11006189831913    2.23378564082864
H         9.92862865355944    3.48196196437837    1.57028826316473
C        10.09192930784573    4.21977985309967    3.56590658574989
C        10.83318534644054    5.03564672177987    4.49325888636985
C         8.87998804970192    3.58095706530318    3.95063143214803
H         8.27123168757503    3.24202116118675    3.10977673067935
C         7.08679634965336    2.79407172354107    5.21176964575919
C         7.07345026766950    1.38595755757537    4.61115618487501
C         5.94521213759130    0.57955272130977    4.74160704759327
H         5.08121980578498    0.92864387274264    5.27879806446094
C         5.95581703269284   -0.67212171647687    4.15286302519801
H         5.09073179383046   -1.31484677562831    4.22626343699922
C         7.08880956081308   -1.09103372400054    3.47089689272705
H         7.13462273629901   -2.05908666944744    2.99735012053225
C         8.16594598464848   -0.22547787481359    3.42076670000523
H         9.08455366692863   -0.49370708148028    2.91403603411125
C         6.07660997327917    3.67622237990487    4.47983911072982
C         6.26918204622013    5.05326523568798    4.40635609232774
H         7.13292316230533    5.50886400566004    4.86509936500416
C         5.31976452668896    5.81515735133566    3.74565813619292
H         5.43549468178227    6.88680592427400    3.67798528102385
C         4.21909102675908    5.18567400316226    3.18538627398650
H         3.45803784802313    5.74509555893506    2.66491327553078
C         4.11889067514775    3.81137022166875    3.32228549688441
H         3.28015553960995    3.26155743839552    2.91502384464936
C         6.70713728854808    2.63175236203344    6.67784461884870
C         5.40902910300460    2.76271448508403    7.14734691812726
H         4.60383660220589    3.02533202097181    6.47953980611447
C         5.16958140111578    2.57538136499817    8.50006505681756
H         4.17230507797357    2.69463371772222    8.89591432762072
C         6.23111941906300    2.24419549941488    9.32468312667611
H         6.08658100296088    2.09035936906496   10.38252158815143
C         7.49352453672393    2.12482575191529    8.76507957145404
H         8.35906426550225    1.87397367804426    9.36390619700194
C         5.14615404688614    5.96162440374140    7.65783027810858
H         5.56523775777544    5.74656864576951    6.65907183866193
C         6.11500447768711    5.82741905406600    8.72935460334525
C         5.75146773845513    6.14562122440839   10.02827416579980
H         4.74526725642754    6.50919465288367   10.18693899952904
C         6.62842436243162    6.01774293822128   11.10059221149720
C         6.19718296280178    6.40072137299916   12.48502906409746
H         6.03740537470347    7.47686541104864   12.54706783699016
H         6.95048585703856    6.12187985152696   13.21762857772338
H         5.25923691604125    5.91126897877078   12.74238803995090
C         7.89392879661824    5.53003346530482   10.84084201875588
H         8.59405940085193    5.40495852944554   11.65677675351914
C         8.30738001163388    5.16018305174528    9.55629922456100
C         7.43104831604604    5.32974723909114    8.43040146820756
C         9.60834824973782    4.60798913640856    9.39185134777015
H        10.25481048344018    4.68597878889899   10.26813538053840
C        11.45944280748264    3.52969032600739    8.45677017192230
C        11.59535656419433    2.55526697265966    9.62849854363807
C        12.83584356062805    2.29853081337488   10.20591567181041
H        13.72004812603429    2.81906982096044    9.87574680882658
C        12.90870631767029    1.37898132612631   11.23727366908666
H        13.85595739798264    1.16689440716512   11.71134164113746
C        11.75115669482288    0.73959986324116   11.65333226055658
H        11.76671372543946    0.01743775033356   12.45416633135093
C        10.56854504344231    1.06142413749433   11.00942771134139
H         9.63146771207950    0.59733780258503   11.28983002910210
C        12.38462693786690    4.72429918570165    8.65781502928025
C        13.06079986902771    5.32966906299635    7.60822394096289
H        12.97189669320868    4.95055476241579    6.60408799386580
C        13.83597182622364    6.44719960687434    7.87713088253702
H        14.36500611294847    6.94222655553113    7.07636371907526
C        13.90590672245771    6.91917922932788    9.17809971322950
H        14.49552297027446    7.78694976876946    9.42829093104142
C        13.18676331502043    6.24742416654761   10.15365164201198
H        13.19584442093552    6.57014772588430   11.18687058457956
C        11.78876416094260    2.71954683306033    7.22183905915451
C        13.08894805767739    2.33056955916617    6.92073382024620
H        13.90898568578510    2.63087993636723    7.55346963989000
C        13.31780200188370    1.57146335342026    5.78674956871275
H        14.32127815678701    1.27347766249072    5.52196800479519
C        12.23359798624992    1.20265704863103    5.00688089093817
H        12.36452260516791    0.60649114409144    4.11802969253094
C        10.96871993643224    1.61380388383387    5.39010404757415
H        10.09354893534116    1.33345574546929    4.81754256678153

