65
CSD_code = ROLXIZ | q = 1 | S = 0 | Stoichiometry = C31H28NNiOP2S(1+) | MND = 4
Ni        1.12915494521077    9.62995057401675    9.35380390250993
S         0.30624369385010    9.91662810301202   11.35368846572497
O         2.55460105285341   10.75515961599702    9.84671910392030
N         2.55213745902775   11.26481012612269   11.06690339780243
P        -0.30724053163391    8.15362708371869    8.79816583811939
P         1.80279742793119    9.57013566721952    7.29432495796760
C         3.55893278838429   12.07914176888241   11.42212419700795
H         4.29927553608385   12.25507081465508   10.65699234525051
C         3.60885202588047   12.62298909922388   12.67858232960924
H         4.42432772353025   13.27314460294486   12.94582905690568
C         2.59718864114815   12.32048866640033   13.59408812484363
H         2.62008406208102   12.73684611319268   14.58775378926011
C         1.57396654129747   11.48680203715397   13.21367277655178
H         0.77082916614842   11.22395539791617   13.88248989181510
C         1.55337677103906   10.95204602095461   11.92220093902415
C         3.48252599532514    9.77717625966896    6.66978410627057
C         4.22382009599883    8.72744418627217    6.13740967504967
H         3.79619264046404    7.73888999546578    6.05756999574925
C         5.51688273461427    8.95661391611616    5.70042396234610
H         6.08979837370675    8.14579065567194    5.27680781183626
C         6.07745818825152   10.21904603742350    5.80807892571251
H         7.08683235908414   10.39013569625371    5.46704489024866
C         5.34685832357382   11.26123775487035    6.35921292563639
H         5.78766705773172   12.24263583863399    6.44761826768661
C         4.05471119852748   11.04233860616946    6.79528155884012
H         3.47354140925983   11.84247179843639    7.23318474158556
C         0.86552810566500   10.94369522193421    6.56385890719027
C         1.03495049419985   11.32714799359983    5.23714741956594
H         1.76774905793634   10.82506889942695    4.62078367001551
C         0.26979736217892   12.35762497232198    4.72164510802173
H         0.39908395823798   12.65929442052202    3.69351282443645
C        -0.65992450685865   13.00501217164711    5.52173988812459
H        -1.25221914426013   13.80899655284157    5.11291070473072
C        -0.82677260076118   12.62977885845053    6.84579918212309
H        -1.54657379333040   13.14002073655771    7.46771677218408
C        -0.06297453344473   11.60157864835126    7.36677252193818
H        -0.17568397594054   11.30312280199617    8.41854481545997
C         1.06205901449936    8.10292524848719    6.44191443887673
H         1.63786839469982    7.21343448363890    6.71341628098269
H         1.09957945665871    8.23445646676769    5.35764324992695
C        -0.36759125195486    7.97675058761610    6.95581271448192
H        -0.98413287843066    8.78130949616060    6.54581389455552
H        -0.82058312430136    7.01636200476538    6.69510493733933
C        -2.00983580636165    8.06900102947579    9.39341992865715
C        -2.23908493372162    7.53320998262156   10.65979707787992
H        -1.40814863296774    7.14764978404681   11.23452831027068
C        -3.52274169679763    7.49663466875801   11.16958970600970
H        -3.70060688985445    7.07483490236248   12.14678324543347
C        -4.57836012661277    8.00553648295110   10.42883006084678
H        -5.58013409631914    7.97739022668174   10.82878044938455
C        -4.34876846653688    8.56031390659588    9.17993605478088
H        -5.17038439195561    8.96576434354370    8.60938102656447
C        -3.06679077356765    8.60371682016041    8.66224034847557
H        -2.89240863153949    9.05165449006767    7.69476260090791
C         0.48596346384214    6.60797959415698    9.31670763079166
C        -0.14783678009303    5.37532867117995    9.19390908411332
H        -1.15720127620439    5.32363742479445    8.80986912629835
C         0.51860315480627    4.22670858333401    9.58036237365041
H         0.03100847226179    3.26807058316540    9.49113802209252
C         1.80817939819746    4.30367238322579   10.08527305251232
H         2.31989640986960    3.40315237450449   10.38782328687202
C         2.44114802358461    5.53085133480571   10.20932476455197
H         3.44321024450904    5.58618718778148   10.60655979196606
C         1.77997911996064    6.68317639857536    9.82656028624730
H         2.26343850136477    7.66447282573463    9.92703046445970

