83
CSD_code = ROLYEX | q = 0 | S = 0 | Stoichiometry = C43H35AgO2P2 | MND = 4
Ag        3.55673000024076    5.69724131753107   10.35529989559599
P         5.77860886210634    5.52750832203671    8.89830471413865
P         2.62954578951747    7.72989530007432    9.40420123324579
O         4.43734707195419    4.98562906029590   12.36413471655596
C         3.91579687118979    4.54368761403355    7.14565234624976
H         3.37101560698670    4.33539348961575    8.06232596106480
O         3.41113310068524    3.41473160177244   10.49036149741922
C         4.58405399082017   11.33737121866090    9.56371194323374
H         4.54820758603282   12.29381262666759    9.06255304538436
C         6.44522859005384    3.92801833254643    9.46592212840002
C         1.05547809514303    8.51968005798774    9.88244168735072
C         3.71443681851976   10.33124324211612    9.18578267074819
H         3.00230333434103   10.49950146041322    8.39038334349138
C         3.76448331634416    9.09581356632022    9.82433728126406
C         0.35474800454158    9.40904978507917    9.07486742517337
H         0.70266648798659    9.62660696936899    8.07480154575926
C         5.18088750266489    5.12364257921244    7.22397022634678
C         5.32911276234672    5.07238346097220    4.82791413307013
H         5.88081629080841    5.28041987026333    3.92224827459402
C         5.88231176588765    5.39370332568628    6.05526238455707
H         6.85789861730139    5.85587564191970    6.10192038431369
C         3.70982223918069    8.08946357541446    6.84131205026928
H         4.60474820146954    8.43674061384124    7.33869834053822
C         4.02260118275928    2.85788397490208   11.44565225992729
C         2.58601352049158    7.75397346218599    7.58965900172075
C         6.22662010067785    2.71767818873390    8.82166837534353
H         5.66681708167230    2.68675592959373    7.89777274905859
C         7.34538543594049    6.40532654767386    8.53428490385393
C        -0.80153332592023   10.00184349987130    9.54862599070082
H        -1.34765733288347   10.68865689431615    8.91826463923914
C         3.36969896371706    4.22260541322657    5.91851948542483
H         2.39132083797441    3.76818434071283    5.86569819262642
C         3.68271309344788    7.98007285019673    5.46341030058290
H         4.55602375965153    8.24992218551019    4.88810347448290
C         7.34602989691141    7.79282215500207    8.62584773162221
H         6.43911481434937    8.30351804966463    8.92109206881371
C         2.54500141484902    7.51921438626829    4.82308303412580
H         2.52724904310668    7.43561009693042    3.74672338305768
C         0.58859742939996    8.23575431316559   11.16224615421443
H         1.13849940298498    7.53314207249870   11.77933459664225
C         8.51836746770531    5.74403082949785    8.18197322334222
H         8.52718119479784    4.66482525826882    8.11616484333437
C         6.71813677985461    1.54740730502118    9.37325051157337
H         6.54308235430188    0.60649974175620    8.87173195754701
C         1.45505691785299    7.26016210015932    6.94212786715658
H         0.59495928913337    6.96360453577945    7.52853532907613
C         5.49850101073273   11.12287253136899   10.58366243671131
H         6.17519250997978   11.91277819216624   10.87469132869635
C         9.65845041149784    7.85038841500694    8.00284206222880
H        10.55950600590666    8.40941595314759    7.79717791134156
C         4.67894472646841    8.88629952136086   10.85149045935884
H         4.71072678651492    7.91752559538978   11.34619849318107
C         5.54375261398595    9.89845416547318   11.22968306621879
H         6.25544650857220    9.72987032753624   12.02393622206162
C         9.66707974177849    6.46687445693619    7.91734186816765
H        10.57493436576286    5.94930496047903    7.64260844838845
C         4.59494386087032    3.73944478570806   12.49742788608400
C        -1.26051641946147    9.71988952248064   10.82529103471036
H        -2.16422068404962   10.18665365997702   11.18820665263566
C         1.43316146288317    7.15353247883727    5.56530501390888
H         0.54990441811800    6.78010405449180    5.06799305501634
C         4.07701156319893    4.48672340390435    4.75611465827383
H         3.65088643159127    4.23745569327969    3.79536834445160
C         4.11626270378989    1.44995145362239   11.43162111003201
H         3.62469509129265    1.02157346887864   10.56419346713233
C         5.29864388983289    3.28401854409657   13.63446462889301
H         5.61335606471397    4.10554018280395   14.27000306464298
C         7.64062013825941    2.78098667682671   11.21098476266687
H         8.18105651854690    2.80426886240829   12.14564849248856
C         8.49582069754591    8.51351613570199    8.35840463330152
H         8.48544050557268    9.59142921004319    8.43329925074132
C        -0.56402822807887    8.83599743334415   11.63343887819911
H        -0.92278553346444    8.61206499646399   12.62714732618335
C         7.42566269615432    1.57572032744737   10.56264215392337
H         7.80058632456475    0.65814500231576   10.99101447693139
C         7.14635541787356    3.95106609854867   10.66953795839588
H         7.29250294972358    4.89617263488923   11.17725459571389
C         5.64995152644799    2.02361304358988   14.05816697135861
H         6.20580933211560    1.98915433355054   14.98955249861575
C         4.70845691278596    0.55607137312828   12.29361386485854
H         4.61829134072850   -0.48685257854602   12.00833286522982
C         5.40025348646430    0.79281064171276   13.47064927597101
H         5.78248262196719   -0.07684272127496   13.99041348092776

