75
CSD_code = ROLYIB | q = 0 | S = 0 | Stoichiometry = C26H38N8NiS2 | MND = 6
Ni       -0.76298109839857  -11.53925162886666   -5.28559783918672
N        -1.34791982122132  -11.53401750152118   -8.37431531044017
N        -0.70300024335109  -13.07513982840080   -6.64984422264929
H        -1.64740413404586  -13.46578901943287   -6.69582237678813
N         0.23227485619181  -13.04443043813310   -3.91945077780243
H         1.24266801487344  -12.91444626297862   -3.89943792772930
N        -0.12848119961512  -11.53072064374875   -2.04422412746243
N        -0.77989727125265  -10.03140206090792   -3.87804601234822
H         0.15909036226148   -9.63016747338973   -3.84615980557510
N        -1.73489333077966   -9.97832740043668   -6.61291010039337
H        -2.74378838258045  -10.09321454195157   -6.67973395921374
N        -2.43663845549529  -12.03410971709405   -4.82690052222227
N         0.89569727290192  -11.01009897334927   -5.77616638353074
S        -4.32234774683099  -13.74403273001664   -3.75693730576788
S         3.44374100036851  -10.03280650720848   -5.34556093809588
C        -0.40240914351429  -12.54067893432131   -7.99871585447570
H         0.61246693382033  -12.12422897223739   -7.96486202677394
H        -0.42876315639172  -13.35621124042075   -8.73788718562845
C         0.19165021905579  -14.10561525940158   -6.12717531431393
H         1.22396318431977  -13.77925127994716   -6.28593330676156
H         0.04239982256865  -15.06549908283382   -6.64103685012530
C        -0.04954397164792  -14.29660169994023   -4.61276559234363
H        -1.09809495569439  -14.55851914590838   -4.44586007638691
H         0.57602639220636  -15.12720793464683   -4.25298374751098
C        -0.28246855278649  -12.87490218486445   -2.55018388328081
H        -1.34945577108749  -13.11217782420875   -2.55890940905578
H         0.21174532288178  -13.56277004333174   -1.84802829773571
C        -1.06481135198856  -10.54517560705551   -2.51628489182250
H        -1.06434171308144   -9.70409741038659   -1.80631527869661
H        -2.06166136836511  -10.99332870766733   -2.52233950282445
C        -1.67743652060030   -8.98731909858714   -4.37223301127537
H        -1.52734405029643   -8.04343589183041   -3.82963105972458
H        -2.70799598410082   -9.32059276756445   -4.22095284245285
C        -1.43776896392009   -8.75418873961278   -5.88186304442550
H        -2.05037226188060   -7.90139890575168   -6.21136026938096
H        -0.38470301712824   -8.50475343409983   -6.04094123097944
C        -1.14303945641679  -10.18195282942964   -7.94721948220889
H        -1.55978673350704   -9.48315833846977   -8.68568954690361
H        -0.06782906275550   -9.98477888860252   -7.85292454127981
C        -2.34151308736536  -11.90746441291423   -9.37349967833532
H        -1.84689871550877  -12.00183154565966  -10.35931056098628
C        -2.94446267168156  -13.25284731023447   -9.02006075055409
C        -2.85814918229865  -14.32562720194483   -9.89617539277845
H        -2.35783978225293  -14.20037241509866  -10.84692218152336
C        -3.40810673403857  -15.55277651806494   -9.56496878864750
H        -3.33412076972917  -16.37802471998114  -10.25811717604401
C        -4.04755302594221  -15.72215525137939   -8.34911876061600
H        -4.47184948215432  -16.68021135124255   -8.08850992155265
C        -4.14527167083914  -14.65600690736295   -7.47048084668739
H        -4.64277385589223  -14.77680963830487   -6.52020629000637
C        -3.60072086838412  -13.42881766597698   -7.80624515657764
H        -3.68700087188768  -12.60076201372764   -7.11831260991020
C        -3.48137615507119  -10.89811080982422   -9.52276467152018
H        -3.14490054326493   -9.96772680209715   -9.97236951675851
H        -3.94165343459302  -10.68808583367377   -8.56144524335133
H        -4.23877789441721  -11.32862883972734  -10.17442986717089
C         1.26159543494264  -11.05881829682568   -1.93425363457091
H         1.73830872579395  -10.98882367215921   -2.92535385713444
C         1.30662698813586   -9.68613631135801   -1.30339236351595
C         1.93496280662527   -8.63465993180331   -1.95661877859830
H         2.38897143111411   -8.79649227359081   -2.92467291335580
C         2.00381243365467   -7.38213375129405   -1.36949845066793
H         2.49946295212524   -6.57444197858064   -1.88763618985238
C         1.44145892618188   -7.16803886624590   -0.12378351824400
H         1.49447581920374   -6.19168587038501    0.33486808424300
C         0.81232836022124   -8.21239732334686    0.53486305649407
H         0.37322056299771   -8.05025236791635    1.50843770459681
C         0.74721261722468   -9.46353265964125   -0.04964840354493
H         0.24936930735093  -10.27611960928999    0.45768893421745
C         2.10400523557648  -12.00881425873742   -1.07460820101185
H         2.33463562812456  -12.93302805083832   -1.59816413084329
H         1.58375887374776  -12.24454875435215   -0.15045582061923
H         3.04443627922524  -11.52003159449764   -0.83042708995202
C        -3.20621547513301  -12.79326017593332   -4.36145540430373
C         1.97519617549753  -10.59672606742127   -5.55624775474654

