79
CSD_code = ROMBUT | q = 0 | S = 0 | Stoichiometry = C28H40B2N8Ni | MND = 4
Ni        6.48121018151963    3.92664590910591    5.24693948806903
N         5.94047838162418    4.86769382395617    6.79268877468651
N         5.30139590539223    4.25186336208701    7.78977499864540
N         4.79280474282595    3.08150574566566    5.25855098556339
N         4.25417138341093    2.62529002940805    6.39154295387828
C         6.52906054818077    1.96528541069159    7.49090375694434
H         7.08834191866560    2.36497536794685    6.60623437471905
C         7.42387751972511    2.23122147647055    8.70920475941640
H         8.38441163664138    1.71895260836498    8.59286137490203
H         7.62870270005613    3.30565882872616    8.73791677133655
C         6.81741460047083    1.82905129915281   10.05509981074741
H         6.92638232903684    0.75701539367491   10.20141451218823
H         7.40189546297905    2.30407182634451   10.84969599274575
C         5.35149319661172    2.23431066859718   10.23273343342059
H         5.32533755687064    3.29425332962015   10.49021155460722
H         4.94592812441756    1.68823881888847   11.09030929965021
C         4.44562765645145    2.00588672714802    9.00788184992375
H         3.46075252989765    2.41319730287711    9.27413067523114
C         4.23335348929852    0.50297448935681    8.74507308540221
H         3.87177090524811    0.02269769795218    9.65980123191037
H         3.44834331425671    0.38987310857650    7.99582081038069
C         5.46570165017965   -0.26289194762833    8.25550403031859
H         5.12920257215945   -1.21102217080555    7.82366864399308
H         6.09903786945839   -0.52506612150193    9.09974861393895
C         6.29091507496860    0.47701827197977    7.20053577805883
H         5.75912516113851    0.40964672880125    6.24668439737078
H         7.24665268651728   -0.04284275035441    7.07862470705436
C         5.93832334930460    6.17602938147827    7.04199705936358
H         6.40035534721758    6.88076378954307    6.37727819714850
C         5.26770389342014    6.41359251970274    8.23424972214549
H         5.09077445178973    7.35657687186910    8.70868674628809
C         4.87323089665284    5.15999330593300    8.66633296909105
H         4.30661501967852    4.88774629106698    9.53218069012017
C         3.88254514380462    2.97458015535554    4.29215212082106
H         4.08848386192059    3.27747004883566    3.28328513754896
C         2.71488846854988    2.44068355970542    4.82043268644437
H         1.79936332000363    2.23317749273902    4.30624023460671
C         2.99791199819583    2.24491783299811    6.16037589973005
H         2.36604137528243    1.87408892850288    6.94019697781594
B         5.09448814925885    2.71031828252988    7.70080064224939
N         7.02193622942970    2.98560611478360    3.70118310894767
N         7.66102572382958    3.60143861922660    2.70410199682655
N         8.16961099384500    4.77179055400293    5.23533026247449
N         8.70824647459089    5.22801051366622    4.10234101544438
C         6.43336215233153    5.88802219447218    3.00296135176802
H         5.87407363079954    5.48833406626221    3.88762632650001
C         5.53855498867715    5.62206815107772    1.78465793059790
H         4.57800896050500    6.13431792621269    1.90099839850728
H         5.33375274098880    4.54762513157064    1.75593693241266
C         6.14503099652616    6.02426216089687    0.43877650731597
H         6.03606841098849    7.09630116679328    0.29247817184611
H         5.56055553192798    5.54925573586242   -0.35583098749866
C         7.61094784998668    5.61899231170100    0.26114415690441
H         7.63709949296849    4.55904941366449    0.00366883150198
H         8.01652180895713    6.16506072941055   -0.59642882152262
C         8.51679829520076    5.84742204959263    1.48600473293289
H         9.50167503534464    5.44011289319838    1.21976244325710
C         8.72907415102504    7.35033559578015    1.74880849713220
H         9.09065601829291    7.83061207592660    0.83407965999661
H         9.51408348618934    7.46343614666252    2.49806021470914
C         7.49672861146922    8.11620438191428    2.23838046922567
H         7.83322965581383    9.06432857950808    2.67022913282912
H         6.86340390414119    8.37839193977876    1.39413069198138
C         6.67148868055859    7.37629428543840    3.29332829104878
H         7.20325314106857    7.44367323697412    4.24719240358604
H         5.71574405408769    7.89614975484415    3.41521230932171
C         7.02408299149416    1.67727222146221    3.45186704993264
H         6.56204507738347    0.97253728187288    4.11658090450319
C         7.69470804239683    1.43971055657739    2.25961759658732
H         7.87163515530672    0.49672708422394    1.78517768318202
C         8.08918907930872    2.69330982360287    1.82754145563314
H         8.65580999339433    2.96555792538052    0.96169735191437
C         9.07986589716776    4.87871752821507    6.20173182520095
H         8.87392377981566    4.57582591846880    7.21059729152077
C        10.24752521511243    5.41261116398307    5.67345442962719
H        11.16304954719499    5.62011451266743    6.18764890479400
C         9.96450551507255    5.60838015365714    4.33351084401278
H        10.59637977881262    5.97921122100421    3.55369329229182
B         7.86793453491819    5.14298518429887    2.79308159427424

