86
CSD_code = ROMCUR | q = 0 | S = 0 | Stoichiometry = C26H54IrP3S2 | MND = 6
Ir        3.71707036771331    2.49800627683703    3.64073437297665
S         2.10428493882773    4.13695356137906    2.80644914514157
S        -0.79360595198721    4.40694111418055    2.84216720403217
P         5.07540313882932    0.75459672447721    4.44367490918424
P         4.97444839246224    4.35128572518592    4.71963783828378
P         4.69824748132356    2.63021366746193    1.37956483257971
C         2.55034580924712    2.45988381032081    5.33417302339916
C         1.22498409921731    2.41962453614941    5.31752181692933
C         0.46904789359591    2.28037528813017    4.01587379090881
C         1.06071477573343    1.16920253495663    3.17770980121776
C         2.36746695429504    1.09593806950670    2.96871718878586
C         0.35965872219439    2.52602345453962    6.54164555557324
C         0.05591300892572    0.21553292577447    2.59525079867277
C         0.56621604819060    3.57323581697584    3.24349205762793
C         5.10405298877802   -0.78566185132223    3.41079021405137
C         6.04424334285151   -1.90477550157032    3.83938133302159
C         4.67728391579853    0.04913318090688    6.10767203227734
C         3.32006393913230   -0.64351784789126    6.11475675513818
C         6.90370825206150    1.13483079657501    4.56189807438588
C         7.68844175856720    0.61715947933058    5.76155997173728
C         6.63389573591637    4.91707992289294    4.05179456781461
C         6.95690211617281    6.40569389936858    4.00976512692361
C         4.04245324072898    5.94351957242396    4.88752934268536
C         2.82311986558387    5.83811605955970    5.79463584257904
C         5.43234134828157    4.03811675130749    6.49596972935821
C         6.20666174759995    5.12367846950612    7.23201533758059
C         4.42395452379308    4.17366259423008    0.39672261406751
C         5.05011609131868    5.42905151066031    0.97970340096556
C         6.51320557744349    2.27245399693348    1.11301675905040
C         7.14299106427919    2.66453988381277   -0.21768795550001
C         4.00978295237739    1.43880982654402    0.13296624346347
C         2.56289906948795    1.71972100537837   -0.25516488574582
H         3.01665468654362    2.53970730173271    6.31564852814521
H        -0.58941722068643    2.08908086938522    4.20947960154593
H         2.71383404488853    0.26725035254158    2.35372753111047
H         0.96176537783811    2.67567537895136    7.43552689081666
H        -0.32875068801121    3.36478388292404    6.43692981258510
H        -0.23307282271174    1.61930064538815    6.66623402324854
H         0.53931129844821   -0.52112494149704    1.95700596667158
H        -0.47656265595778   -0.30536444268070    3.39157252030636
H        -0.67758431518746    0.76502654129454    2.00505485720269
H         5.35161896860779   -0.46369218206498    2.39511852204063
H         4.07569990545405   -1.15112129158007    3.39199810863122
H         5.94195605512955   -2.74517232160761    3.15412442517606
H         7.08296087554162   -1.58469483364589    3.81834795804071
H         5.80783195374066   -2.26097341903501    4.83841425825835
H         4.66492830625092    0.88656303500677    6.80837539353254
H         5.46265310679405   -0.64222299832240    6.41755015337699
H         3.00886728206670   -0.84855878725352    7.13705836078399
H         2.57476239417055   -0.00477655593871    5.64452737262888
H         3.35776200511830   -1.58743838969467    5.57730530741360
H         6.98013703462103    2.22389702559880    4.53445756259397
H         7.35258906333767    0.76334060530726    3.63700500224047
H         8.72289828976340    0.95092755036100    5.68452281580837
H         7.28211002650559    1.00012384891304    6.69461243347403
H         7.69188417033603   -0.46827913228758    5.80670074962651
H         6.69433351261395    4.52566029468944    3.03460452373064
H         7.39683104055377    4.39724879422110    4.64005753586944
H         7.94528606642071    6.54213833934686    3.57103909710864
H         6.24149212568443    6.94659920214182    3.39582542729088
H         6.97143818086580    6.84790453533530    5.00216198136822
H         3.70611865909319    6.21634190852239    3.88386985850477
H         4.71374573252285    6.72461308401383    5.24983943967093
H         2.23956917958995    6.75447116475452    5.72935819857160
H         2.18861166380819    5.01045477109211    5.48804433441123
H         3.10761671335829    5.69017272146878    6.83401176628407
H         6.00273809298396    3.10457710944571    6.51015220648266
H         4.49370315712433    3.84707103025934    7.01929574035989
H         6.36618537534794    4.81725903484868    8.26544020954335
H         7.18222578877387    5.29525104830929    6.78370871600875
H         5.65822744048574    6.06189235990511    7.24525377047695
H         3.33941291913328    4.30632011804095    0.38095912714561
H         4.76816736664623    4.00014748066872   -0.62716832465403
H         4.74542099566364    6.30069024672728    0.40277637609512
H         4.70588348124533    5.56286197782077    2.00282623346482
H         6.13778418617730    5.38212353806305    0.97457952556685
H         6.61637724506914    1.19222203609018    1.26074351626474
H         7.06337399568901    2.75462001756474    1.92471413745680
H         8.17828014194773    2.32579328655166   -0.24194865936480
H         6.62655094576639    2.20897202863466   -1.05897740208728
H         7.14091076612307    3.74240556834671   -0.35520250291917
H         4.08606232931940    0.44082175291434    0.57283153892654
H         4.64429019644878    1.45623934228541   -0.75773165792488
H         2.14108415712965    0.86075212634265   -0.77419160948764
H         1.95996829231887    1.91435245834048    0.62862086921477
H         2.49255990075830    2.57933962694109   -0.91612896780007

