85
CSD_code = ROMFEE | q = 0 | S = 0 | Stoichiometry = C44H27AuF10P2S | MND = 4
Au        3.42437596323445    4.54219454810764   10.09863659173582
P         1.47751100891484    4.24714970738188   11.22696976608373
P         3.93202251455872    4.70877182782909   12.32167547456450
S         3.02898278436247    4.74604500753276   15.22447379654037
C         2.37896302944075    3.94826614125945   12.72178093028274
C         1.80701172970645    3.98555930507427   14.11551226861819
C         0.51540063647687    2.78756544671067   10.79015701491193
C        -0.43971456207990    2.88952194486969    9.78026587579238
C        -1.06853452481068    1.74909915204038    9.32034588999473
C        -0.74034050462210    0.51271290688420    9.85644956049048
C         0.21909713199780    0.41194109435853   10.85146062784330
C         0.85996414321708    1.54638656601651   11.31239032376119
C         0.23983153626874    5.57176317205800   11.26264768917642
C         0.47704975024757    6.79401896216594   10.64315199514925
C        -0.42360028936178    7.82950634716298   10.81186877652404
C        -1.54460832553801    7.65226410223232   11.60791419015721
C        -1.78072988643350    6.43341434515846   12.22604565746664
C        -0.89248720949967    5.38866116693888   12.05568168215191
C         4.44947792414753    6.39009660203927   12.77818712756313
C         3.91201458935966    7.43778905883687   12.03964240685843
C         4.23109276695518    8.74292626431405   12.35914956336849
C         5.08262460641887    9.00242521852445   13.42029597034209
C         5.61947048613851    7.95762015174741   14.15680248514483
C         5.30662796029074    6.64928602499540   13.84335697158618
C         5.29351877083611    3.64663538810585   12.82083805827261
C         5.04940637968340    2.37580206602768   13.32721671570178
C         6.10890972614850    1.52223869908064   13.57052008256002
C         7.40420204695703    1.92443322154637   13.28755781822634
C         7.64740961207747    3.18634589326544   12.76605814342935
C         6.59616841804078    4.04930050813738   12.52710578798288
C         2.59625883548801    4.21301417801379    8.26413798296335
C         2.28319598794729    2.90819729539459    7.91128479595874
C         1.58109126626677    2.58714290103308    6.75584192427090
C         1.17225440332379    3.60866989612923    5.90529120537418
C         1.47067170329292    4.92853336512604    6.22444772411712
C         2.16881156807223    5.20476245850376    7.39597862886768
F         2.66373948727104    1.91480763880178    8.73099418441408
F         1.28228481827996    1.31555829047860    6.46574392208751
F         0.48680010595045    3.32425752497463    4.79374847150594
F         1.07170927339523    5.91802368383165    5.41722517307541
F         2.41887505318339    6.48837225097177    7.70300882366305
C         5.33063292354903    4.74702621304049    9.47507361796229
C         6.17641680522846    3.64737479014849    9.47654225820252
C         7.52820108644568    3.73916275468460    9.16576260807594
C         8.06761505898121    4.97944410710600    8.84211744424945
C         7.24895553533470    6.10348620261686    8.83191248139914
C         5.90129110223861    5.96795939094798    9.14966977546298
F         5.66982965191024    2.44861298864874    9.80421954582593
F         8.31247278977119    2.65591081404130    9.19215318872818
F         9.36733149538104    5.09192489542393    8.55226468889880
F         7.76288044560731    7.30138612007321    8.53203299822105
F         5.13061012153624    7.06646798045659    9.15243934227154
C         2.55654644118685    6.45483413326336   15.27084242910430
C         3.07066553613225    7.21337682012502   16.31659787742130
C         2.76975677663484    8.55777089363520   16.40431241880275
C         1.95351584897123    9.15355223392913   15.45551538226894
C         1.44712362937645    8.39632176423621   14.41519972006525
C         1.74982711613159    7.04998906689686   14.31463070747985
H         1.65660100135757    2.97681162312302   14.51228796035749
H         0.86427678193837    4.52991863134921   14.21189566007139
H        -0.67886107681320    3.86206510068058    9.36687264513887
H        -1.80698395077864    1.81989661333212    8.53536558642623
H        -1.22748621468622   -0.37684045291995    9.48663103407011
H         0.47801154300896   -0.55490551332818   11.25634740917309
H         1.63343971373757    1.48783487363734   12.06582141333018
H         1.35133250756261    6.91925442782594   10.01769760634125
H        -0.24973921915478    8.77554182338716   10.32115964591111
H        -2.24121880643961    8.46590177020857   11.74447609705013
H        -2.65799299798581    6.29891288225403   12.84149867893036
H        -1.06817061314767    4.42432679626284   12.51761098085535
H         3.25495024824976    7.21651943917601   11.20746683953077
H         3.81970240697857    9.55455045434372   11.77864540678787
H         5.33160548559919   10.02172434589447   13.67431645047821
H         6.28374207864101    8.16403772934022   14.98289690455039
H         5.71153325470916    5.83036453862574   14.42249886824234
H         4.03164486174614    2.07244967985229   13.52715476428612
H         5.92493570122195    0.53654273880418   13.97131189265291
H         8.22884393369787    1.25068288765782   13.46511122348489
H         8.65801127532479    3.49170849505933   12.53728864278597
H         6.77184341308994    5.03569291127673   12.11485249340082
H         3.70226469383583    6.73711171640349   17.05090630110637
H         3.16969243961031    9.14201360629991   17.21935810238820
H         1.71506538821894   10.20375948860814   15.52740900724270
H         0.81561590140547    8.84831248902019   13.66433948759116
H         1.36135716858208    6.48902941226652   13.47803033441242

