78
CSD_code = ROMGEF | q = 0 | S = 0 | Stoichiometry = C28H45ClNPPdSi | MND = 4
Pd        2.59893590764218    1.19873149604941    8.09463394332745
Cl        2.53491491432230    0.53021051266114   10.22183505557396
P         2.73478138383050    2.46555618985038    6.26671884761751
Si        1.18907611650221    5.14075277510193    5.18982941868824
N         0.70621537096154    2.39764905010929    8.19301824078960
C         1.43415879063968    3.57552311336649    6.23814451105056
C         4.16340359797543    3.16713027878145    5.38717167060034
C         5.02656285381743    4.06861562548097    6.05445782597049
C         5.96344495836574    4.74071307455697    5.28233501410128
C         6.10984377700381    4.54360809662295    3.91763882347782
C         5.34821856419040    3.55012098042620    3.33035875517402
C         4.38768957278082    2.83564345530191    4.03557422225440
C         0.37437849198907    3.17872869727903    7.13942786410511
C        -0.95837209853577    3.58843607828385    6.97709139622335
C        -1.91603770113375    3.20723787827883    7.89095836636854
C        -1.54591187149785    2.41245896858160    8.96920155031540
C        -0.22185636851112    2.02669859908701    9.06766506327940
C         3.65347195198262    1.70072346296980    3.31129184727874
C         3.83218015839137    0.39293269780025    4.09298156635576
C         2.16325862108185    2.01634108524174    3.14052169962070
C         4.21156016407920    1.44044283097416    1.90228530240241
C         7.10581560493614    5.39172634601049    3.14330034890265
C         8.51554526975104    5.15868208737378    3.70413628751811
C         6.71793967668545    6.86908657125841    3.30028939890354
C         7.12726382725561    5.06317728944338    1.64789308562201
C         5.08271452739826    4.26524088264813    7.57828103471767
C         6.06145772178667    5.38226896740808    7.98478957111483
C         5.62048377099529    2.96470790079605    8.19523135573646
C         3.73346591363887    4.61624454185033    8.22790199981972
C         0.57757733115879    6.52504246699199    6.36449083772561
C        -0.11640962926620    4.80424985449775    3.82027498240932
C         2.72699644529667    5.84749793547601    4.32034314625860
C         4.01564434038739   -0.26243535437232    7.76788581299911
H         6.60772806316452    5.46383221914121    5.74525849776577
H         5.50088400653527    3.33852654118918    2.29037676917281
H        -1.22935358626274    4.18477214309328    6.12346439212013
H        -2.94262118147135    3.51991746309857    7.76558892163411
H        -2.26316780313887    2.09911803172421    9.71013725377161
H         0.12200647410975    1.41141362009208    9.89345667246530
H         4.88977191540965    0.19177732006483    4.25065007538515
H         3.40350833907263   -0.43622698597488    3.53386551476278
H         3.33594622250523    0.42830474468001    5.06239768439498
H         1.64659684491451    2.02068901545851    4.09779663385536
H         1.69645907602857    1.26205302716506    2.51021189046683
H         2.03144186673299    2.98875235637018    2.67258717542781
H         4.03620418477796    2.28261078558647    1.23693339660707
H         3.70066684665732    0.57874195918932    1.47727074173407
H         5.27423709544701    1.21232568911458    1.93010989121435
H         9.24254771541904    5.73932448011532    3.14055054870448
H         8.78108550077920    4.10630320699740    3.62875614241227
H         8.58319524841885    5.45298795996421    4.74762560908275
H         6.75503425452165    7.18201503215519    4.33988878138370
H         5.70761758722864    7.03259253177889    2.93130975997280
H         7.40006185437226    7.49783527678341    2.73225250020218
H         7.83385460244328    5.71946080280367    1.14405304757077
H         6.14866117442110    5.21738744101931    1.19902594206852
H         7.44428381683890    4.03740661185481    1.47465202109512
H         5.76892044615867    6.34208267220750    7.56376630551749
H         7.08342275197136    5.15015897012357    7.69561520072405
H         6.05301367570474    5.47790066435930    9.06840620948251
H         6.54411258639494    2.66069410540811    7.70672615195718
H         4.88712785422974    2.15309226048727    8.10488293609503
H         5.82192392302618    3.11537522258478    9.25387991329339
H         3.90822480665349    5.15125286844221    9.15959061740255
H         3.15989363514079    3.71810102083959    8.49139368491201
H         3.13436943610881    5.25122914113423    7.57976462479310
H        -0.07037171496012    6.14781815954009    7.14903567677588
H         0.02285076060832    7.27844212270055    5.81355436552063
H         1.40977238040069    7.02940696977258    6.84691814575939
H        -1.01243100375467    5.39737468695871    3.97826961149203
H        -0.41678592595021    3.76177470188717    3.77500852014869
H         0.27259904337486    5.07284960163625    2.84289790702778
H         2.45114259033840    6.76889196482007    3.81547619367222
H         3.13330516941345    5.17311893335785    3.57608616045644
H         3.52525508604647    6.08129650737473    5.01522100789370
H         4.71772354054939   -0.00818051346217    6.96670647973756
H         3.42780922909239   -1.14656512457429    7.47458619070192
H         4.57745965497674   -0.50218064795796    8.67283538472126

