49
CSD_code = ROMHEI | q = 0 | S = 0 | Stoichiometry = C20H18N4NiO4S2 | MND = 6
C         6.10581510912726    6.86265003321714    4.60066155227117
C         5.37687721207421    7.69972264196906    1.25290596237641
H         4.33150973575108    7.54849718607630    1.02693131967998
C         6.28986176566308    8.15120687658492    0.32409205026122
H         5.96299437794059    8.36440635902953   -0.68214611630321
C         7.63673673408811    8.33892899700618    0.64790805702912
H         8.31377433741697    8.69235292032539   -0.11499033076623
C         8.12649098413428    8.07941338838979    1.91238975519239
H         9.16818232600151    8.21809412024552    2.15659680232051
C         7.21575146998906    7.62192977746257    2.85156128003936
C         5.85711249930692    7.43874640916093    2.53109104624968
C         5.83853360226591    6.39332075022678    5.98036702380035
H         5.29671225546813    7.15232722903489    6.54918272882235
H         6.76526418374109    6.13514705917253    6.49497504638154
C         5.70456027392241    3.74315790232840    5.09254568906773
H         6.71264678379775    3.68968630734140    5.50388069561088
H         5.20766730144049    2.78386332013557    5.24443392829700
C         5.75127766061650    4.00792475707354    3.55720195836941
C         0.97518433089216    5.10307917989190    4.17222086904065
C         2.20969726933022    4.38987564074373    0.94626371709615
H         3.27685667089828    4.54686997130214    0.88849003278677
C         1.45056311628549    3.97683342835611   -0.12759063167558
H         1.92776687123982    3.80145118861452   -1.07960257969746
C         0.07055191818215    3.78087526793652   -0.02067126044149
H        -0.48103127829536    3.45896901465180   -0.89096637308363
C        -0.60736670697394    3.99350896001571    1.16310076729057
H        -1.67375398386514    3.84895183000673    1.23996388255121
C         0.14793876071621    4.41240469265614    2.24697219035932
C         1.53904731222614    4.60355715698519    2.14501692925679
C         1.02700920352272    5.52367478162809    5.59180801472409
H         1.48374575956243    4.74748422710867    6.20983052835882
H         0.03109106054469    5.76047991248255    5.96896995897631
C         1.27455126028938    8.20105430806676    4.81607453308423
H         0.21267637709900    8.23023413807152    5.06061951525703
H         1.72548698230033    9.15869730492786    5.08020970392824
C         1.47903051798496    7.99560395385767    3.28445705181412
O         4.71949509765606    4.51235949960332    3.02725753552864
O         6.76432765006202    3.66359468119432    2.97643921058688
O         2.58206641845500    7.50347746984198    2.90929119277521
O         0.57511667296110    8.37154961120022    2.56073566353155
S         4.72235197357456    4.93952486435151    6.02218027183331
S         2.11108567529839    6.97970858668256    5.85002872042172
Ni        3.60974656851511    5.99926361984451    3.48535195051827
N         5.20473506860106    6.97386984384853    3.64997402951429
N         7.33277885907105    7.25240674728811    4.17204262593696
N         2.01128581531522    5.02471356055950    3.36691407825316
N        -0.17070968835146    4.73298966138727    3.54685778746697
H         8.18454230738455    7.22646397577534    4.70810491608545
H        -1.09443647321874    4.73989688642201    3.94716671919504

