111
CSD_code = ROMHUZ | q = 0 | S = 0 | Stoichiometry = C49H55IrN6 | MND = 6
Ir        2.28476761269323    8.59184979685661    5.39477021992942
N         0.86150059223629    9.81867961442168    4.69192224836966
N         3.69800008925511    7.39268635424199    6.20230339351448
N         1.65594809215865    7.21140371427153    3.76772636240395
N         3.84399688700211    9.13121958094174    3.88084998401043
N         0.27602991414881    7.54679138490436    1.91387100162694
N         4.52377845040132    9.56155581067686    1.67995901720491
C         0.05582061076738    7.92298813581410    0.54332400838159
H        -0.31564827064854    8.95198807557319    0.44484033876863
H        -0.68596855480843    7.24754877824322    0.11392230112526
H         0.97571053613212    7.82385298134644   -0.03197755933563
C        -0.90088337722724    7.07790088160170    2.60183820530002
H        -0.74682591950684    7.10973901260266    3.67794999501919
H        -1.14614414760266    6.04886370356334    2.31670906837731
H        -1.74918837282804    7.72483863087686    2.35412653041100
C         1.43498355644346    7.84915580601150    2.60260042523520
C         2.32007569093692    8.77142434701454    2.06203442336568
H         2.05182346424524    9.25280307199575    1.13641929276149
C         3.58589832019025    9.12017276779165    2.59013142602247
C         4.48777613198317    9.14327927823689    0.30365969765650
H         3.94045293625882    8.20688201874053    0.21550326541462
H         5.51165027907237    8.98295707113706   -0.04468423807903
H         4.01896312814514    9.89298762600071   -0.34769369387738
C         5.49599700756038   10.58510637028399    1.96731828319449
H         5.25289320269435   11.08780035331167    2.89966391159155
H         5.48168055428589   11.32578657361832    1.16088503947114
H         6.51021901356871   10.17678619342551    2.04613140960167
C         1.04461434382133   10.76443491298267    3.77126449226453
H         2.06838857345121   10.99662862745828    3.51932053616215
C         0.00347939782329   11.44227573015460    3.16728352429161
H         0.20734664618584   12.19537591387313    2.42265524503555
C        -1.29942921869095   11.12776138775201    3.53348624114442
H        -2.13869212000157   11.61906743131858    3.06380335218276
C        -1.49666864842684   10.19184079372384    4.52773128527951
H        -2.49386354259396    9.94564371150135    4.85508052967893
C        -0.40089377593943    9.55495499854464    5.11274745493477
C         0.77935323654596    8.11695950937573    6.64242440818283
C         0.80716435735702    7.31383384872173    7.77963099308860
H         1.76424109385197    6.94962507767382    8.11886800176053
C        -0.34290191394266    6.96051990526440    8.47202713107554
C        -1.56654973459219    7.44665415464089    8.00409947732967
H        -2.48402092446956    7.18201902121383    8.50809690115903
C        -1.63159179675431    8.27420111994971    6.90668627291035
H        -2.59314862580014    8.64610246855528    6.58230679536728
C        -0.46657526085824    8.62503996000012    6.22371286274845
C         4.08959038790939    6.22413432303529    5.70038583395681
H         3.54311398790510    5.85877872824086    4.84434091072755
C         5.13047369288137    5.48329799128295    6.22452251399541
H         5.39990338762604    4.54130972093512    5.77470511129383
C         5.81257485215395    5.97827564949786    7.32716955002552
H         6.63336012018208    5.42872664982382    7.76307321507619
C         5.42291372278049    7.19413604255462    7.84857734982991
H         5.94125641903335    7.61334442235687    8.69536414879601
C         4.36422028757386    7.89544928309148    7.27189349230962
C         2.89870614935019    9.77860085317118    6.90296771832846
C         2.45385912591192   11.05233772513469    7.23682794607768
H         1.68551303935573   11.50008774850681    6.62547391656913
C         2.95853544241845   11.76841227847561    8.31721689293149
C         3.96090391670164   11.17321508256604    9.08262936102969
H         4.39110478064033   11.69418737240594    9.92300733848789
C         4.42774390059426    9.91115786732032    8.78460176447903
H         5.20422432668250    9.48150692110429    9.40113862605937
C         3.90770185833876    9.20410941198574    7.70284116710798
C         1.39563491736884    5.86036762729222    3.82246728532055
C         1.57369018370725    5.04228995298810    2.69223147469948
H         1.88000586455558    5.49420884474000    1.75799399078455
C         1.38671562207805    3.67819971309211    2.75871867158793
H         1.53439035010918    3.07829745681246    1.87028995697358
C         1.02365784056566    3.07120119725831    3.95002549196051
H         0.87774739495471    2.00212645191813    3.99875826424847
C         0.86089639472428    3.85940919754551    5.07813111544593
H         0.58252738818205    3.40159085620329    6.01789894002544
C         1.04292245717769    5.22477094202935    5.02127743536505
H         0.91317191992719    5.82342698942340    5.90726768660506
C         5.15363113284685    9.09755100415978    4.35210818377367
C         6.03010482759341    8.08741954011580    3.94331496627669
H         5.69617414045483    7.37351039399316    3.20251602705487
C         7.28850196705690    7.97992379643780    4.49959042136576
H         7.94613639159314    7.18230146739026    4.18237010430497
C         7.70890071361232    8.88199637927779    5.46291637017932
H         8.69248371584740    8.79188352382038    5.89989132490182
C         6.85874054133690    9.90266737484763    5.85619657454229
H         7.18052098801532   10.61879908729439    6.59887864506647
C         5.59717010871611   10.01504123158352    5.30874477967760
H         4.93847823646748   10.81213002707683    5.61928143043173
C        -0.31944610177669    6.05103600108439    9.69034748557889
C        -0.94837216423987    6.78416398820211   10.88331681272252
H        -0.92497078674349    6.15052794641572   11.76778160119290
H        -1.98237028408017    7.05208362948728   10.68533980856579
H        -0.39394673889239    7.69594046127510   11.09540343981113
C         1.09801071858984    5.62818020946672   10.08632914489627
H         1.57414586290761    5.06055216628102    9.29009397607030
H         1.05316158477233    4.99496217341011   10.97065811420734
H         1.71235082350724    6.49443244205035   10.32102411176993
C        -1.12555997901603    4.78373569869383    9.37061910690535
H        -0.70209950175133    4.28118467709616    8.50359213740328
H        -2.16354797487942    5.01942512227060    9.15262141978473
H        -1.10083223434604    4.09838342064264   10.21554792203595
C         2.47707002317051   13.18175096572414    8.61307339746564
C         3.37049339699333   14.14999073234196    7.82364603593743
H         4.40988971912464   14.04076483010001    8.12587191551822
H         3.06348190136787   15.17910552975641    7.99989883066440
H         3.30227250777063   13.94394487299699    6.75760127877714
C         1.01673368527598   13.38081033558963    8.18637792209893
H         0.90992148785710   13.37415401947250    7.10498545197139
H         0.65515618102886   14.34219462979791    8.54620544405176
H         0.38842362444080   12.59678841148358    8.60290764806181
C         2.57514747134036   13.51079100507199   10.10819614920581
H         2.06857612597832   12.75057856496531   10.69845156022850
H         2.10380630244115   14.47140768260308   10.30665667402237
H         3.60824233967613   13.58014285075055   10.43731675126186

