48
CSD_code = ROMJIP | q = 0 | S = 0 | Stoichiometry = C21H24ClRhS | MND = 8
Rh       -1.63008294685425   -1.71950248300608   -2.34963881841109
Cl        0.39061908088822   -0.64523692551738   -2.02261553011980
S        -1.16228265142054   -3.40943053376767   -0.76871253812991
C        -0.10601421259188   -4.14338175222308   -3.16505231630621
C        -0.30140858205813   -4.55753595546696   -1.83398204827582
C        -0.27303621264299   -2.50089936111093   -4.89815452971962
H        -0.54993953244704   -1.51935353845844   -5.25903328637507
C         0.13521337174074   -5.76788515797379   -1.37042908962849
H        -0.03990771909607   -6.06125522417959   -0.34608019270953
C         1.04457145253085   -6.25733703165871   -3.54106458421778
H         1.57866653367425   -6.91709826441904   -4.20993215586810
C         0.41733154491176   -3.35801899155315   -5.77031893808601
H         0.61955294402146   -3.02309399562184   -6.77808436207015
C         0.59867978840037   -5.01535996844592   -4.03911822991915
C         0.83532356267184   -4.59352990629909   -5.36154071324977
H         1.36366423851010   -5.25263793566276   -6.03512419248522
C        -0.56902235386598   -2.87897656278493   -3.61119389789258
C         0.21078611417089   -2.92016362072615    0.31895843738920
H         0.93600278324442   -2.35286044029422   -0.25888830255281
H         0.65072964526370   -3.81686298906305    0.74417329406362
H        -0.21378367411448   -2.29608068375074    1.09913401971246
C         0.81944149205054   -6.62585673624726   -2.24307572049358
H         1.16744283400042   -7.57992038742197   -1.87610267589353
C        -3.40915096946783   -1.42678747089444   -3.67343621510143
C        -3.80491665647181   -1.95642597832200   -2.41402100899430
C        -2.74777713628562   -0.18352078691660   -3.41872079552781
C        -3.55263941231364   -0.94739610061953   -1.39339046826715
C        -2.91993588045379    0.13650291505208   -2.00789286146345
C        -3.72264409843973   -2.02142179466070   -5.01054295153495
H        -3.04574437873411   -1.65386933340514   -5.77683794206120
H        -4.74140631839601   -1.74998974392704   -5.29405188811906
H        -3.65217202157189   -3.10683456445916   -4.98744635166319
C        -2.28924087672145    0.81899808374679   -4.43129078812520
H        -1.34091408896281    1.26190606458913   -4.13133198967227
H        -3.02731827737881    1.61959606064297   -4.51178922053353
H        -2.16811506816596    0.36684967781329   -5.41260717627573
C        -4.63608631044125   -3.18222792809459   -2.20097483548808
H        -4.45706998491310   -3.91546005855147   -2.98381846505641
H        -5.69456342260738   -2.91448683780214   -2.21610863118924
H        -4.41565648410445   -3.64295039015747   -1.24017653465912
C        -2.54582835886363    1.45475073377554   -1.41010944558447
H        -2.74355812728539    1.47240750751210   -0.34153790824206
H        -3.12194317002546    2.24977217055782   -1.88608297263459
H        -1.48803398829795    1.66192673077890   -1.56822938157637
C        -4.04515270108553   -1.03814336097618    0.01763619599696
H        -3.92934372028785   -2.04710611024346    0.40931823248979
H        -5.10625539983460   -0.78238688529153    0.05085864901597
H        -3.50638064992169   -0.35272415447934    0.66756112557416

