40
CSD_code = ROMKUZ | q = 1 | S = 0 | Stoichiometry = C17H19NO2Re(1+) | MND = 9
Re        1.53325016107254    1.09164806319947    3.73892868653488
N         0.46597800730159    3.11520777586399    3.12791433713547
O        -0.90261634795818   -0.40028451240036    2.58925837281723
O         3.30357922589835    1.31918046682996    1.23413377945069
C        -0.24993438115901    3.64845746036087    4.31047946531712
C         0.69418408807146    3.78328640887072    5.51248381151206
C         1.43505600591236    2.49379964740568    5.66990204303596
C         0.84261752100574    1.24768941517625    5.98967950907905
C         1.83972194785569    0.24917042558426    5.90430781491207
C         3.06531918117219    0.88748916754615    5.50000162769372
C         2.79952331871372    2.26338402808926    5.34391458500239
C         1.36235312412651    4.11398796761222    2.53207606059610
C         2.23504133149410   -1.34492805966758    2.90249874896807
C         3.64583263133935   -1.57354572031825    3.05958204182215
C         4.53530549420943   -1.38525045671005    1.98525870237953
C         5.87781102849937   -1.66651648565569    2.12615299632309
C         6.37143696574161   -2.13958361868256    3.33484335952259
C         5.50766019168571   -2.34562100632852    4.40428128263970
C         4.16655155007613   -2.05979279279431    4.27357180824349
C         0.01066395771844    0.17260112411594    2.96463547456999
C         2.60047763341048    1.23228152712749    2.13010360595280
H        -0.70497996916448    4.61588036296098    4.06672000804811
H        -1.05193930993146    2.94799294379955    4.55809768333036
H         0.09998613042324    3.99661767176183    6.40414731717582
H         1.39214449636123    4.60975206667636    5.36736637066110
H        -0.15158380870278    1.10703300912643    6.38329664484983
H         1.74113235603873   -0.76945497652418    6.24588883309606
H         4.03621912508191    0.41758289753017    5.46206281767095
H         3.54000380103862    3.02720513888317    5.16524018705674
H         0.83340410439181    5.05605900615229    2.36370077353819
H         2.21214079647133    4.30664111649819    3.18285258776600
H         1.73283515065075    3.74729503657799    1.57682173819968
H         1.87906676918726   -1.38509022291073    1.87993719756395
H         1.60821471732372   -1.89312634574935    3.59624855230027
H         4.15256296464866   -1.04172969333695    1.03738371627176
H         6.54663322617422   -1.52526051911274    1.29147369528299
H         7.42272857084125   -2.35709176115406    3.44234655863847
H         5.88928680084731   -2.73293344161917    5.33681360437705
H         3.49579365663047   -2.23418186907389    5.10165596288671
H        -0.24996221449912    2.91654875428975    2.42343763777857

