48
CSD_code = ROMLIO | q = 0 | S = 0 | Stoichiometry = C16H25F3N2OPt | MND = 6
Pt       -0.24919405759590    1.50007901495087    2.03581986177039
O         2.97471734836258    1.44760917732354   -1.71501221067074
F         0.10984127063704    6.35892326196785    4.41931632251001
F         3.44770069600710    5.11110224876592    1.35713410700972
F        -0.66072796046184   -0.42731631694304    1.54652988733083
N         1.61589794199733    1.37844718490604    0.81071000888110
N         1.25407277246538    0.74135009468848    3.68630322770720
C         0.41598016439793    3.36203011360467    2.38477731430584
C        -0.07627985062773    4.29982241105404    3.28772919371304
C         0.61238369434860    5.47317047275283    3.53158917773290
C         1.80828874604998    5.77354878521130    2.90657614744333
C         2.28009152414141    4.84458947514230    2.00112699266243
C         1.61934627443624    3.65629589707387    1.72398015798780
C         2.17972671831081    2.72648115599989    0.66584655262069
C         2.46758154202788    0.43688361400438    1.53344529329803
C         2.55785456358684    0.79536068500663    3.01475482717289
C         1.33351197772457    1.49421618468840    4.93545603797669
C         0.89546637748612   -0.64068529390571    4.00225642153874
C         1.84695527717179    3.30728908699734   -0.71879213571666
C         2.50065820840159    2.54820067554146   -1.85494956342216
C         2.51543220211525    3.28668632436412   -3.16429268896094
C        -1.47729399139241    2.06212929579493    0.48702429406563
C        -1.89832329091989    1.55438246644673    3.26062614584053
H        -1.00341239140400    4.13041042102616    3.81130848168411
H         2.34268545913473    6.68669435013543    3.10662733295166
H         3.27759505220495    2.68246735351434    0.75129869887074
H         3.48214104172661    0.41888172225749    1.10844201168752
H         2.03039758897817   -0.55718721771613    1.41475260166333
H         2.94798305576338    1.81335948614084    3.10853480065264
H         3.27089733520592    0.11574244879102    3.50670320655089
H         1.55247682552146    2.54225996910825    4.73480390773899
H         2.11573189320992    1.08729215859299    5.59017618679948
H         0.38307315791260    1.43678573131364    5.46191345017211
H         0.79500741466223   -1.22741445524773    3.09377794472186
H        -0.06798518437131   -0.65441069174454    4.50828760547634
H         1.64945993233105   -1.10542458920608    4.65208179808913
H         0.76325346518923    3.28597889418313   -0.86569902836989
H         2.16128161546102    4.35103363189908   -0.76336184037959
H         2.76107300206542    2.60828673496509   -3.97692201693143
H         3.27724975339909    4.06363100423976   -3.11623478345130
H         1.55707449848137    3.76479990841586   -3.34870308414011
H        -2.44372213500327    1.57375519573967    0.59704753282704
H        -1.01523779293292    1.68490604710823   -0.42738789608527
H        -1.62050696425230    3.14066409793475    0.42036627674830
H        -2.40241286346665    0.59187182734686    3.16010217585531
H        -2.60530470464128    2.34679451211897    3.01668777466358
H        -1.57721404645075    1.68058583343254    4.29649457885229
H         1.46412684260390    0.98163961021628   -0.11515308944434

