56
CSD_code = ROMQAL | q = 0 | S = 0 | Stoichiometry = C18H26CoN5O6 | MND = 6
Co        6.74924289537931    9.87495439209647    6.65468360335674
O         4.19834863401058   10.64084716593292    5.85915584033678
O         8.54487107678280    8.17432537398201    5.41931599001510
O         4.87932558738259   11.60913358186629    8.06025013482883
O         9.38807612217648    9.13016859660708    7.57870466111793
O         5.92081494992977   12.91043202107671    5.29785344897239
O         7.33218049074950   13.50083006971943    6.94239529784049
N         5.29473052566728   10.03951686409070    5.50926194336065
N         7.41857330989645    8.80750508120418    5.29990213131775
N         6.09375870683345   11.02419073057613    8.05011414628483
N         8.26469456364821    9.83180817187756    7.81935979615036
N         5.88941811739458    8.23696186640990    7.52877788405223
C         5.42808055756076    9.43719408726165    4.36808877738626
C         6.66771919956846    8.71983542407160    4.24584353137386
C         4.37427646271414    9.44647308369044    3.30906608533548
C         7.03795511589158    7.91566997703765    3.04212856672722
C         6.93611435408997   11.29705015310280    8.98706794197180
C         8.20235388449367   10.60704018585147    8.84864452103741
C         6.66412387046610   12.27528755684480   10.07674614861116
C         9.32620928842806   10.81019632879454    9.80810653417202
C         4.61364366803473    8.24080034778047    7.91240760519838
C         4.01567415730341    7.16389334658633    8.54356089576053
C         4.76739092267438    6.02673338405584    8.78983414188113
C         6.09082846156133    6.01745777499233    8.38031679693908
C         6.60895998330461    7.13864302767115    7.75599224431444
C         7.62539727576092   11.41014993137480    5.81108280195999
C         8.75264605562844   11.40746070582361    5.11931044883546
C         6.97204947594181   12.71461808636383    6.09411947294897
C         5.11266547233738   14.05953706322264    5.54223230916949
C         3.77448904674364   13.83682426873605    4.86131682764785
H         4.45652534213486   11.30250529467934    7.13084545806081
H         9.19248798715197    8.66994095907245    6.64194398471124
H         3.55043290701528   10.07334925419329    3.64158767587731
H         4.00525648335721    8.43912686532447    3.12013778742016
H         4.77740666143947    9.84471174227425    2.38008158097190
H         8.01001753907288    7.45842686053033    3.21200157788660
H         7.09018319428536    8.55521191451799    2.16270576746506
H         6.30105149447451    7.13569724316243    2.85579971024984
H         5.59009464771686   12.37075802095975   10.22054769056500
H         7.05198708471625   13.24606573589918    9.76617375208427
H         7.14167666119847   11.98296025120868   11.00728673471570
H        10.20136693262629   10.27048302716039    9.45562537926480
H         9.05830210419840   10.44616439368239   10.79927222008237
H         9.55964705932324   11.87044253013368    9.88034169888929
H         4.03562268584658    9.12971548066270    7.69895522096422
H         2.97841737648050    7.22185959211857    8.83277269247937
H         4.33277249887773    5.17003841615818    9.28251890970665
H         6.71881949648127    5.15523650788146    8.53859715996859
H         7.63571991121368    7.14119802502314    7.41649956303585
H         9.18126072313227   12.32781893280922    4.74324056806421
H         9.30918454867484   10.51446057694135    4.88656354853127
H         4.99459859362592   14.17932832318156    6.62513279399637
H         5.62480861419795   14.94657182762632    5.15054246416366
H         3.09013532819339   14.64151328073864    5.11370769925190
H         3.36017489363054   12.88832311789126    5.19322317393373
H         3.90383699857950   13.80045317746504    3.78295465875391

