41
CSD_code = ROMQUH | q = 0 | S = 0 | Stoichiometry = C16H16N4O4Pt | MND = 4
Pt       -0.50093650106076    3.11906873702780    2.66941557005178
O         3.75663162576548    2.25808520944325   -0.32513946589407
O         4.00120285546089    0.10305970280390   -0.94913642292612
N         0.52920687874780    1.60681731173036    1.92914273439466
N        -1.49320599315888    4.85936515261153    3.36809513868759
H        -2.32471193038532    4.77951545888181    3.95382827148142
C         0.70983388446512   -0.76021731865464    1.69354441142711
H         0.34854964120045   -1.74497994398014    1.94464730593322
C         3.50384610996382    1.05838154885082   -0.38630814989201
C         0.07974096434574    0.36137465375730    2.22695621928690
C         1.57748209171201    1.75131753305506    1.13105148680750
H         1.97863695998379    2.73847715926906    0.92390827935010
C         2.21557479523379    0.68650940054656    0.52517031292145
C        -1.82728452302315    5.57443661697770    2.12840551524976
H        -2.15930369940925    6.59655414549690    2.34985123174988
H        -2.64526134508230    5.04861532631613    1.62911566631754
C        -0.44398125244753    5.58930784291670    4.09224932421835
H        -0.26195456039791    5.08985117753988    5.04701968898032
H        -0.76333838781491    6.61886268296200    4.29769090488813
C         1.77199856214565   -0.59682294563133    0.81734792522041
H         2.26329274300921   -1.43808637501342    0.35222625080197
O        -4.76088883417118    2.25759221518188    5.66066769801931
O        -5.00233328211231    0.10334712458296    6.28883851630950
N        -1.53233054217169    1.60682954348743    3.40806973078809
C        -1.71282406747108   -0.76020460155452    3.64387203060828
H        -1.35151848157144   -1.74496821238702    3.39279833505459
C        -4.50615267458910    1.05845446312695    5.72450279204887
C        -1.08282566410775    0.36137750207080    3.11033316503475
C        -2.58065093446081    1.75131129424218    4.20612735802967
H        -2.98209340188098    2.73843730702860    4.41284957424972
C        -3.21845520112280    0.68651975561165    4.81234426952434
C        -2.77478864083956   -0.59681120952550    4.52032580136931
H        -3.26563801471369   -1.43806466040644    4.98593546398514
N         0.49049736708135    4.85935790681221    1.96959224402791
H         1.32199714447056    4.77945018272159    1.38385679005154
C         0.82462385700381    5.57430603197002    3.20933685799825
H         1.15673799587845    6.59640894290725    2.98797656448145
H         1.64253346137032    5.04836114004912    3.70859764799215
C        -0.55868513299829    5.58942324790514    1.24549401740042
H        -0.74076158167781    5.09010198569775    0.29065827391886
H        -0.23926229116984    6.61897696357061    1.04014067005190

