41
CSD_code = ROMRES | q = 0 | S = 0 | Stoichiometry = C16H16N4O4Pt | MND = 4
Pt        7.33904564498766    7.97810669704374    3.89835142149239
O         5.55845326220453    7.12368263301905   10.85924323789531
O         7.46656184756508    8.06329391448498   10.04596269098069
O        10.65844538997476    3.02366115534789    5.51055906628949
O         9.30876170756762    1.19065991392412    5.44562744586388
N         6.78245054083989    7.80642629298938    5.78364807886829
N         7.90100506663189    6.11755852492791    4.23887897644838
N         6.86186119054954    9.98692187262260    3.35811056339684
H         6.40167196710664   10.60696726225086    4.02256076921725
N         7.95597304525274    8.38663393164197    1.89701250287448
H         8.41332470402702    7.66773178337993    1.33866216178119
C         7.15508815520796    6.65517993335429    6.41602929831161
C         6.89487058761928    6.46563088801840    7.75703794519199
H         7.22629712482680    5.56499944719653    8.24764686044145
C         6.20882519402603    7.43831066130651    8.50080484395185
C         5.78723451575539    8.58674227413604    7.80063874652026
H         5.22882074732384    9.35364244491217    8.31297368267625
C         6.11620799508276    8.74004154561520    6.48181692408473
H         5.79949910636534    9.62326069879659    5.93826349584616
C         7.78612246434511    5.68206041656369    5.52749251645397
C         8.19732559257998    4.41589647037749    5.88838789943009
H         8.12656235889497    4.09963026344525    6.91630233736090
C         8.71411459874485    3.52812701669347    4.93234520824113
C         8.76784548459278    3.99333565610847    3.60312519603755
H         9.13005478173377    3.34543662101314    2.82113428370907
C         8.38791229844713    5.27522015776538    3.31349678399141
H         8.42804852316760    5.64022754522555    2.29316023198257
C         6.35377789059917    7.50513172741651   10.04490438755999
C         9.62621245157633    2.34524812497529    5.35839724091324
C         8.17115360475617   10.54494152668362    2.99468370527249
H         8.74945823466171   10.70992246252668    3.90702809331012
H         8.05090805637650   11.50806852737082    2.48131454307571
C         8.87340868281596    9.52031920914276    2.07712548373440
H         9.12315257639895    9.97341645265628    1.10873851463312
H         9.79590220255268    9.15578871942417    2.53617630009770
C         6.03287077512030    9.84897489666847    2.15392665495001
H         5.91020375638753   10.81938978950554    1.65514599446601
H         5.04535879353234    9.48337730674545    2.44589388648605
C         6.73597640396848    8.84097674273873    1.21864194442638
H         6.09505784964221    7.97686617102986    1.02835115946081
H         6.98047482619291    9.31009232095377    0.25649892227490

