39
CSD_code = ROMSUI | q = 0 | S = 0 | Stoichiometry = C17H16ClMnN2O2 | MND = 5
C         8.47593639526630    6.16235030113404    8.57574764014180
C         9.15288949900224    5.64393682157361    7.46084206766367
H         9.94670646839817    6.23104653970559    7.02313777917019
C         8.81425676651545    4.40784239649479    6.95540626102756
H         9.34922522568063    4.01850911784790    6.10172130513328
C         7.79513492709910    3.65509317735234    7.53264114483450
H         7.54649532882416    2.68601452642653    7.12849582113207
C         7.10296095150531    4.15337822196333    8.61477589147989
H         6.30511699214904    3.57988276367586    9.06493912463601
C         7.41982902843408    5.40496839004455    9.14901621852904
C         6.67362011463146    5.97437304734291   10.23162228991139
H         5.79779238514113    5.40318287712942   10.55575822103268
C         5.95400056142214    7.58377535161448   11.74861675882592
H         6.46454948092581    7.84170271309676   12.68009377662091
H         5.19142662739788    6.81810245480255   11.94437604834248
C         5.29069982038540    8.83240855260235   11.15879749276766
H         4.98728864840597    8.62664527664414   10.12931001598776
H         4.39903256927228    9.06467473806411   11.74279785755139
C         6.20049695923897   10.05778464580438   11.19567671893885
H         5.61619548034835   10.93001401195281   10.87730903084918
H         6.52499029059692   10.21508833228134   12.23361887090873
C         7.76900656581492   11.09870877070175    9.81815218148569
H         7.04457711634969   11.91366921632795    9.80975298425415
C         9.02294437090375   11.39239079836760    9.23580156628454
C         9.23256781377772   12.60855056262259    8.55455273910095
H         8.40446076399256   13.29770247807532    8.46535609411016
C        10.44947858162774   12.91478148013350    8.00838214889068
H        10.59199905999640   13.84524928500711    7.48013486718000
C        11.52055214298001   12.02052096839882    8.13843454838869
H        12.47761963882944   12.27017785539740    7.70434872978760
C        11.36823267673343   10.84277537587419    8.81900939849841
H        12.18884693800681   10.15066447416936    8.93686469281699
C        10.12211224294373   10.48610393384783    9.38685738358754
Cl        8.85455599363158    8.58018433871332   12.53668047333783
Mn        8.54558983178008    8.42658978382077   10.40419957233903
N         6.93299659906995    7.09905470495962   10.80056000986867
N         7.42242694447760    9.96774885830056   10.39706827777571
O         8.80602585373738    7.30496560899095    9.10226263739324
O         9.99956234470859    9.39418724873754   10.05308135941466

