51
CSD_code = ROMSOD | q = 1 | S = 0 | Stoichiometry = C20H26ClIrN3(1+) | MND = 8
Ir        3.97729244101009   11.48168512383490    1.20762762455018
Cl        1.76749481098790   10.97998795953654    0.59126734281083
C         5.65555311446211   11.47598704180069   -1.09745489820544
C         4.53792209243909   10.67358264757247   -0.71727481577626
H         4.76509262388336    9.61179288808823   -0.70978954211489
H         3.66764494234676   10.85810197773213   -1.35152164513797
N         6.92625813326246   11.09723532846896   -1.34623871576464
C         7.41979400758110    9.74606103225120   -1.35474817656524
H         7.02348828494240    9.19412970145981   -0.50563507752349
H         8.50588242611541    9.76073328545529   -1.29741622399007
H         7.12351665173789    9.23688853902313   -2.27408641665328
C         7.66116849608325   12.20351580037770   -1.69516449407323
H         8.70143322321891   12.13984482245711   -1.93934996098474
C         6.84487942913143   13.27758522610696   -1.66166122694119
H         7.05374755629632   14.30972055058847   -1.84673411005931
N         5.59501651678135   12.82652051125039   -1.28648990869022
C         4.48773204852738   13.62152388733815   -0.97182814884138
C         4.24131610996508   14.78432963676936   -1.69264515143192
H         4.86776870463977   15.04024565711280   -2.53174850999143
C         3.16341145950110   15.57580142141177   -1.33834328440455
H         2.94131360167268   16.47490475050748   -1.89019372969870
C         2.37307830199206   15.17762098467786   -0.26872750903053
H         1.52035917285785   15.75871738033717    0.04022231115773
C         2.68359283536353   14.00604297570536    0.39327592709458
H         2.06883945603134   13.64975746616817    1.20638452638051
N         3.71973914615006   13.23043127690849    0.05951836362688
C         3.49707045429540   11.44206244092991    3.41848703581355
C         4.45422117012730   12.45797524487676    3.20915999655710
C         5.64170872805198   11.85657535457742    2.64691606523633
C         5.42545022326064   10.44560295572804    2.57522449461253
C         4.07253468984985   10.18986109485082    2.97020225982768
C         2.16412206010394   11.55500472058786    4.07128711281238
H         2.14590109126974   10.94258825824111    4.97256463483369
H         1.38264368238126   11.18764780936325    3.40640635815246
H         1.93659776241964   12.58146251554631    4.34452389052712
C         4.33876557003545   13.89023083530767    3.61113429057040
H         3.29959625169644   14.19932089774951    3.68913562187818
H         4.84275263631673   14.54625079814130    2.90348792958925
H         4.80745103291922   14.03042910513325    4.58634243796057
C         6.94966769877489   12.55781923800167    2.47094464738898
H         7.48066644700360   12.58851292118305    3.42342978672702
H         6.80645051155864   13.58390357762388    2.13816008504391
H         7.58365902207203   12.04592020192931    1.75002680808486
C         6.46176573686984    9.39942608153587    2.32639713903425
H         6.79091699454841    8.99890159309938    3.28636737417550
H         7.33172858202302    9.81044708522106    1.82103202249706
H         6.06096386139766    8.57055249253938    1.74698717366690
C         3.45159101863718    8.85364878661736    3.20527006574378
H         3.94919134189928    8.07724361620716    2.63108421196803
H         2.39944088032097    8.86832212682511    2.93108118339813
H         3.52230696518492    8.59924237524285    4.26370282415947

