63
CSD_code = ROMTUI | q = 0 | S = 0 | Stoichiometry = C28H28Cl2F2OPRh | MND = 8
Rh        2.51038561007950    1.00317059159838   12.46337472075210
P         4.26020108906205    0.65948042559913   11.05445101877421
Cl        4.20626709066487    0.55320752806058   13.99570543477757
Cl        1.98316144301007   -1.26110216164249   12.14496613863987
O         3.96520413829960    0.28271061831357    9.47984274588487
C         1.35725421934643    2.70465111732725   11.56458300546296
C         0.45367180136391    1.72009958713288   12.05413781493523
C         0.65646242439144    1.59100893196477   13.48168710991635
C         1.65310828288573    2.52201583287439   13.86712360798642
C         2.15040084652954    3.15771403287957   12.67535124280963
C         1.37588045159685    3.30467119895118   10.19617618644343
C        -0.68366351950418    1.07712924402323   11.33073800706146
C        -0.21378196186075    0.77276731845631   14.38348632765536
C         2.08678256597878    2.86574151550626   15.25366298710417
C         3.07446463982942    4.33346935878788   12.67829137209456
C         3.33996016822938   -0.89107202659483    9.15628735311300
C         1.95289389186301   -0.94939687691975    9.05733411594975
C         1.28059555216819   -2.10560094600528    8.71883011491144
C         2.00960023939585   -3.25578606956027    8.47306226142926
C         3.39053310646388   -3.23434278246111    8.53892485541993
C         4.03969901193491   -2.06064642832825    8.87627000798849
F         1.27010849687385    0.18614958621342    9.27741985611332
F         5.38410305148993   -2.04216801312137    8.90643630679442
C         5.59752975483145   -0.53320851189340   11.42154577140333
C         5.33669566826157   -1.72702613087818   12.08036603751716
C         6.35298102127461   -2.64738647432112   12.26529016218801
C         7.62713722904395   -2.38335032816237   11.79359565483579
C         7.88497338008282   -1.19734108903968   11.12680304493327
C         6.87415207194946   -0.27444366069676   10.93490799251491
C         5.14582725832246    2.21067435824430   10.75346091853536
C         5.04081080880070    2.90814939369760    9.55703579138101
C         5.69184095270964    4.12147005354294    9.40874024734236
C         6.44177283278936    4.64196210219579   10.45031353069393
C         6.54119167119615    3.94943605864452   11.64786597128310
C         5.89002958942971    2.74051262438576   11.80430719599828
H         0.73324682584294    4.18751584425019   10.18486167900842
H         2.38217719884645    3.61270435216652    9.91890204520739
H         1.01099639155320    2.60158300147036    9.45380054505488
H        -1.62049764495544    1.37556329461415   11.80367420353183
H        -0.70398776593140    1.37236245563051   10.28659940849007
H        -0.60972314048401   -0.00839549909167   11.38434567674364
H        -1.15851258855403    1.29322842392514   14.55585419951678
H        -0.43148793504448   -0.19243836906098   13.92999431853920
H         0.27114044527154    0.59788231997533   15.34085375266067
H         2.12870957149496    3.94867380079220   15.36445382934826
H         1.39380028932085    2.45977718480282   15.98601448446706
H         3.07937482752854    2.46274525890964   15.46114073031888
H         2.51724643951962    5.22824781395197   12.96385413765228
H         3.88052531200340    4.18904672076979   13.39374350595123
H         3.50923463688371    4.50143669594301   11.69643449022880
H         0.20425292681766   -2.09628384323238    8.66926328684208
H         1.49879454254956   -4.17191522236076    8.22453345972261
H         3.97913694821760   -4.11540707353617    8.34134264154787
H         4.34437770638354   -1.93508431554601   12.45116634378736
H         6.14450010136029   -3.57365645469303   12.77965247243066
H         8.41897598669547   -3.10348179939835   11.93972656790712
H         8.87643803048677   -0.99096257430957   10.75087446086044
H         7.07506513646684    0.64410464320910   10.40227326405803
H         4.46386262213283    2.49324822185077    8.74449911346980
H         5.61365926591087    4.66163920090125    8.47621789779348
H         6.94888800070615    5.58782370508132   10.32950889122800
H         7.12617246377133    4.35562225430440   12.45969842561772
H         5.94989852642457    2.19239997995176   12.73434125734236

