61
CSD_code = ROMVAQ | q = 0 | S = 0 | Stoichiometry = C24H26Cl2F4O2P2Pt | MND = 4
Pt        6.13966629327924   12.73509622400224    3.83429745909302
P         4.53841931968942   11.12049390729245    3.79894681761055
P         7.50771266088698   14.54431537664770    3.77527682199135
Cl        7.82814593120044   11.32327235482371    3.19685008275723
Cl        4.26917710385209   14.05779130553139    4.39753378842727
O         3.56481311086535   10.84423495339685    5.07482517224676
O         4.98158538643195    9.59627674819298    3.49503954411667
F         5.79881592504894   11.71890112381424    6.45644910365314
F         1.12362780350111   11.56704996114849    5.99677081004463
F         3.92386866301414    8.94095803100683    1.04583026002082
F         4.12123221853614    8.15652003412186    5.68036781630827
C         9.31339460324381   14.21204843322663    3.74153791058628
C        10.20771615516093   15.44282750997517    3.68046294787763
C         7.15092923560893   15.56952821406772    2.29371145059113
C         7.43551158799837   14.78037532828408    1.02006108292560
C         7.23749942694371   15.71329784621932    5.16556064610738
C         7.53842088879352   15.03004223972871    6.49436530803103
C         3.46718745696328   11.62571881452458    6.18115801469167
C         4.57206516734842   12.06422470017155    6.90316404993503
C         4.44894698820243   12.83482061859908    8.04172168039628
C         3.18587843651647   13.18130228824938    8.48852996529436
C         2.06170030145818   12.75414523176368    7.80472484509729
C         2.21248880723125   11.98783568406062    6.66510974253884
C         4.06062000524691    8.59299316680845    3.36867078210555
C         3.53086019918212    8.24771595238033    2.12723123832495
C         2.62053922257610    7.21791319699559    1.97962407887057
C         2.21577354745736    6.50671310405186    3.09556609910595
C         2.72226123435197    6.81897696729491    4.34468906365258
C         3.63235618630594    7.85292911854883    4.46844563762572
C         3.30006472238690   11.46047501022314    2.51227707458675
C         3.74590079622035   12.17870770722801    1.41187366306486
C         2.88116739683051   12.45476062681693    0.37036965074832
C         1.56975188340535   12.01040082061360    0.43137209269308
C         1.12354676883192   11.29690480249373    1.53156430366527
C         1.98637034367302   11.01932562287787    2.57745933533026
H         9.48629027112792   13.55803409268663    2.88377547920497
H         9.53259993742515   13.61552707578366    4.63114081490738
H        11.25069771706872   15.13458535965209    3.64327198477637
H        10.00220506938484   16.03660819516292    2.79288303106535
H        10.07610620015934   16.07350696195152    4.55672192522704
H         7.72310560928612   16.50009630375634    2.32610447015853
H         6.08768713396535   15.82064547266137    2.35310470591116
H         7.01132269778015   15.27947911337233    0.15134700225250
H         8.50535574404925   14.66510344947777    0.86260279608479
H         6.99934303077861   13.78315405751881    1.09849207185133
H         6.18194744101918   15.99408307918911    5.12406663537473
H         7.84154187279320   16.61344619111892    5.02785452575306
H         7.19477482935892   15.63911642504934    7.32798359347341
H         7.02470837652502   14.06926244611939    6.52874955606580
H         8.60502181700408   14.85146070204495    6.61304624998245
H         5.33903399902972   13.15585681545986    8.55777309491313
H         3.07759225794072   13.78805574775952    9.37281258352427
H         1.06821441460208   13.01330865168960    8.13284020537306
H         2.24144051428715    6.99185203485926    0.99632123518980
H         1.50315889408291    5.70454842255669    2.99113593799375
H         2.42238276643906    6.27735769429462    5.22721590898936
H         4.77769385458159   12.51672936106737    1.38988005316976
H         3.22488153653672   13.01505138893534   -0.48623564482857
H         0.89059297512693   12.22512246363087   -0.38063510603622
H         0.09936070307109   10.95704504517695    1.57869159991840
H         1.63682456021985   10.47487042342052    3.44351694953892

