60
CSD_code = ROMVIY | q = 0 | S = 0 | Stoichiometry = C24H30Cl2OP2Pt | MND = 4
Pt        0.01533222122078    2.33371736629663    3.18855235551406
Cl       -1.10311412821079    0.34771101737645    3.03548208002481
Cl       -1.91177639470286    3.63332908846407    3.30495848793156
P         0.63516132980048    4.49754051219173    3.46776387114047
P         1.99187063702741    1.24397140327966    2.96790336978983
O         2.28084895419045    4.67291451827934    3.45657815356231
C         3.15780154185908    1.47553734998300    4.37185970320872
C         2.52617842359372    0.95130003559287    5.65617191249221
C         1.92602625394454   -0.56961472535105    2.68198326389800
C         3.26725625240061   -1.27980660154060    2.55623573042523
C         2.90857296792473    1.93187599694555    1.52886811127639
C         1.98388298858375    1.97375264198219    0.31698553708119
C         2.96874314501621    5.74973281907440    3.97501954966388
C         3.38145726377720    5.71333644604179    5.30137427018601
C         4.10677609782690    6.76740829355914    5.82515529709131
C         4.42119548294347    7.85888538687043    5.03309702414320
C         4.01174272853718    7.89076088452975    3.71106024940530
C         3.28585029965262    6.84056836339713    3.17710198524579
C         0.22400532827873    5.14467309072580    5.11452494568782
C        -0.16565072248695    4.23261945765314    6.08668721752370
C        -0.40301854424760    4.65615701736071    7.38067938573335
C        -0.24143680824934    5.99343698385864    7.70769824238055
C         0.15485581339921    6.90404174628666    6.74186646906042
C         0.39208942331124    6.48421673572106    5.44467857025757
C         0.11403611866773    5.77033708159643    2.27723821247348
C         0.77109684227716    5.80201577317391    1.05188327738578
C         0.39172825426348    6.71221601878779    0.08263296989036
C        -0.65276035368870    7.58770469803966    0.33144545999125
C        -1.32266051004405    7.54270236295453    1.54348026092547
C        -0.94801010959494    6.63252772608260    2.51549788147654
H         3.33813315785561    2.54986338692725    4.44979283054436
H         4.10989183330218    0.98375186337810    4.16064376790553
H         3.10124757122596    1.25493905726320    6.52864088801382
H         1.51269659913002    1.34612507517652    5.75009243944369
H         2.46400450511207   -0.13448843331232    5.64532901071762
H         1.32515989604802   -0.70857432373445    1.77968404065272
H         1.33944540586035   -0.98625752523932    3.50427268158376
H         3.09805635691915   -2.33436089023231    2.34807767514747
H         3.86239137697877   -0.87087490272761    1.74286027183898
H         3.84237632048198   -1.20959212083489    3.47632197590874
H         3.80849007655363    1.34764213246636    1.32450908946343
H         3.21199507442536    2.94305571135139    1.80991320575081
H         2.42778889796613    2.54252140370757   -0.49790217104977
H         1.76835112923948    0.97011605039152   -0.04284316505345
H         1.03412375206872    2.44272519426915    0.59679217684282
H         3.12001835150926    4.86026760221234    5.90984594175108
H         4.42195340265696    6.73652314292442    6.85710300338687
H         4.98334888994891    8.68293862448768    5.44522154258796
H         4.25408521179884    8.73914414064730    3.08876498344901
H         2.95662584017604    6.86207837939357    2.14967692335733
H        -0.30161812777154    3.19182232380655    5.80486779396592
H        -0.71499336536187    3.94761767946002    8.13343701594177
H        -0.42765458008285    6.32780341100538    8.71765073007457
H         0.28015770558165    7.94583286814498    6.99810517592020
H         0.70200276879316    7.19644670213143    4.69160631391499
H         1.57643396136646    5.10298694411947    0.86685739661976
H         0.90325745356749    6.73413632608533   -0.86883824001556
H        -0.95301299022539    8.29770096138183   -0.42505012357436
H        -2.14779693235366    8.21422880582404    1.72943413173506
H        -1.48824033983959    6.57421092015324    3.44866884837059

