63
CSD_code = RONKUC | q = 0 | S = 0 | Stoichiometry = C22H34NO3PPdS | MND = 4
Pd       -1.02575608748191    2.76882541466594    5.79350377929739
P        -1.37274612481691    4.88390276952605    4.98057850033333
S         0.72744575471099    4.25221112333015    7.37666674339189
O         1.03091293863728    3.43774853448671    6.18845223794258
O        -0.58993445254612    3.99774592474088    7.95072717583310
O         1.80032740375182    4.24478917817850    8.33662744548598
C         0.60781409760851    5.91457251519987    6.71340685287257
C         0.20484934841877   -0.11149629022565    8.62870757156131
H        -0.01950309499169   -0.31060301204848    9.66472329011554
C        -3.31278966985257    5.14881440722643    6.80963627933290
H        -2.58223499268733    5.62915065365871    7.46122240310119
H        -3.18033167329491    4.06658390856281    6.91274056801057
H        -4.31274307927020    5.41819939245122    7.14777761064187
C        -0.86470728273261    4.95245438163990    3.13892353237765
C        -0.28116826632172    6.19407826402112    5.68493537707605
C         1.44443376544741    6.87858305696909    7.23991410086290
H         2.10747273366635    6.57798474423694    8.03586975495944
C        -3.10243377986372    5.58149266691988    5.35352220360663
C         1.42164824893519    8.16870762386735    6.74173740051707
H         2.07244356878039    8.92734951498916    7.14963917021417
C        -0.27840360429654    7.49790994774859    5.18010949693692
H        -0.93155653746487    7.76752251434646    4.36875102247318
N        -0.36443984685094    0.99625684783850    6.61108552526883
C        -0.63031149307413    0.72146900267085    7.89041929336027
C         0.55702053626422    8.46933525315379    5.70176549284178
H         0.53155873668372    9.46792971131570    5.28919007710936
C        -1.32295731933042    3.62787316487421    2.52463952383006
H        -2.40807137023501    3.57321676103256    2.47538886853028
H        -0.95011801171856    2.79572895019979    3.13130919367687
H        -0.93095486350191    3.52734122216524    1.51299252538907
C         1.55552345542345   -0.39666248254862    6.68896603089994
H         2.40554318597009   -0.82362947490902    6.18018683945619
C         0.66805396582052    4.95547626620796    3.15365201887458
H         1.05515981550245    4.67853040298908    2.17365420348875
H         1.03531969347988    4.23555365445857    3.88983759889684
H         1.06501272405564    5.93532173318037    3.41195508010152
C        -1.85480184243709    1.32466792706445    8.49199549352040
H        -1.70718634746447    2.40934421220934    8.56027233653956
H        -2.03767752184230    0.92712617348733    9.48681471388993
H        -2.71999128576834    1.13542516913004    7.85542583952364
C         1.31925519237254   -0.66449103978642    8.02634355051611
H         1.98799020526723   -1.30187554560410    8.58536741406222
C        -1.39398049308197    6.09635866420469    2.27638905182132
H        -1.13444203842965    5.89875029846054    1.23609332108508
H        -0.95144374121565    7.05157328292562    2.53989996194844
H        -2.47578556417072    6.17632735482408    2.33695124017697
C        -3.29456845685586    7.09348299629887    5.26115664636722
H        -3.13928470863287    7.46433278498430    4.25124456064191
H        -2.63850136589297    7.62388758606072    5.94596043146381
H        -4.32241836719663    7.32595191209943    5.54077069239931
C         0.89782434735502    0.77096701729274    4.55780058603269
H        -0.05732355199186    0.71224293925671    4.02549781219280
H         1.61320638212785    0.08883430422814    4.10390202520965
H         1.28645554801796    1.79265211813864    4.48125453346417
C         0.69119782716672    0.44785480293023    6.00516488166152
C        -4.13823284539053    4.90128278949626    4.45924197947990
H        -5.13958368542637    5.11348711910227    4.83225439155127
H        -3.99596182981886    3.82674422156277    4.45816330186854
H        -4.08116967909496    5.26547492699410    3.43611284589908
C        -2.71959202051424    1.78333158333872    5.18864772062668
H        -2.55344974205001    0.70677036146545    5.29865100314402
H        -2.98544566479695    1.94503053063489    4.14371193190687
H        -3.59446717306569    2.03419726208278    5.79449694434307

