95
CSD_code = RONLUD | q = 0 | S = 0 | Stoichiometry = C34H54NO3PPdS | MND = 4
Pd       -0.32068984502061    4.57368295004331    8.78761998697277
S        -2.00292313619985    5.71124146406769    6.90256667863894
P        -1.21489684136481    2.68474236853922    7.95255191413622
O        -0.58691178789128    5.33764660636111    6.74812755745279
N         0.53412268205338    6.42726099828984    9.25926479368950
C        -4.08723191992174    0.89502436942086   10.48015956144708
H        -3.55481586907429    1.02049394502335   11.42334228748932
H        -5.13543942358066    1.14928838106498   10.64460512278958
C         0.81307582194807    2.48087002878574    5.93788668067119
H         1.11672135483477    3.44510186984765    6.36869532553940
C        -2.54542681064154    2.95932496093322    6.71865422611017
C        -2.03232667698036    1.46364875682384    9.14909677398186
H        -1.47001048509973    1.60703337975475   10.08041642542698
C         0.23513213650158    3.82994412830221   10.60137031896242
H         1.15440943623772    4.32807193087165   10.92537093951440
H         0.42669684177628    2.75677091169382   10.63178863775268
H        -0.53630931057440    4.04266199157084   11.34408017763161
O        -2.39210799173544    5.94038075966936    8.28792319852932
C        -0.09824299235465    2.80291136932264    4.73701692939866
H        -1.04289932319639    3.16359789130557    5.14234588915927
O        -2.38350803168020    6.76706696587587    5.99995465075983
C        -3.50122865126329    1.83955627468729    9.42341728914076
H        -4.06288625822686    1.67572202824589    8.49665547061745
C         0.12461882429493    1.70072144965803    7.07478373565204
H        -0.28282861697889    0.75891984036169    6.69263317415535
C        -3.22529116559829    1.89259964443210    6.12699162929381
H        -2.91425639329716    0.87957637774900    6.32616969590956
C         2.39520772887274    0.68529218669892    7.71480313816836
H         2.09000241470083   -0.28493568138788    7.30509644055379
C        -0.39950600300415    1.60098127618793    3.84275926535359
H        -1.20325313171179    1.85305857375709    3.15408026983927
H        -0.71955181756619    0.74168091371147    4.42744926692914
H         0.47050036793435    1.31992555310019    3.25424926286980
C         3.06056785674218    1.49738853297337    6.61016790633496
H         3.93999533575170    0.97226346190170    6.23063173724506
H         3.38955068125661    2.45697238918186    7.01452146762812
C        -4.66956955344311    3.40634192494543    4.95085484545136
H        -5.49499090165567    3.58091579787377    4.27728668369652
C        -2.92539457761588    4.25030601732109    6.36810153213077
C        -2.50957381493507   -0.92669129465438    9.84474268175278
H        -1.96537987234154   -0.75328219148663   10.78006485210116
C        -3.68381484987425    3.32321105870912    9.81477792528599
H        -2.92109748462814    3.91809121188742    9.28786940146679
C         2.06577764003270    1.72237739188473    5.48029625185650
H         1.77235356288712    0.74910667124722    5.08248674602115
H         2.55033503929085    2.27936472287280    4.67806491890162
C        -3.50613214199524    3.60181728355108   11.30702590853659
H        -3.48398221075201    4.67668063914382   11.46864724605636
H        -2.57304634093243    3.18316133183539   11.67375065098769
H        -4.33002864362945    3.19226673362051   11.88746748551447
C        -1.92938544419085   -0.01558794910645    8.76026533220295
H        -2.48246469994186   -0.21085519954290    7.84170079993460
H        -0.89115572830809   -0.30065551272570    8.59248719606069
C        -4.27630958956083    2.11313568053198    5.25569239588534
H        -4.78733778691410    1.27126465654209    4.81092837553156
C        -2.34961530090999   -2.39341124521432    9.45339660427009
H        -2.88126165384659   -2.60137998562153    8.52699516227191
H        -2.75206662459925   -3.04012684285370   10.22940229634035
H        -1.30025651488017   -2.64240461673498    9.31052378831649
C         3.34600838033487    0.44428819101863    8.88377199738162
H         4.23745043524811   -0.08088272261693    8.54880728772283
H         2.86544398152237   -0.15354462944968    9.65502976589013
H         3.64961118040008    1.39072311762486    9.32535321128122
C        -0.17240036304913    7.35254353555591    9.91600543965254
C        -5.04721623827276    3.83829706237443    9.35696375204819
H        -5.17203457071831    3.70185457215314    8.28455103353949
H        -5.12902524695310    4.90118658806337    9.56765523995974
H        -5.85481283096427    3.31861203006485    9.87059499493995
C         1.81646134172787    8.13662127736135    8.21699849353527
H         2.61306786086143    8.40418427251412    7.54035305689253
C        -3.97551714136832   -0.56440770487162   10.05927980003345
H        -4.53124558817342   -0.73096976720553    9.13339613426676
H        -4.41046140231732   -1.20533729809263   10.82925857736784
C         1.15793898911727    1.44692316642182    8.18231079190262
H         1.47831310459605    2.42901316094461    8.55644970675564
H         0.70207154820147    0.91162391042844    9.01724195905032
C         1.06724282962805    9.10748747759659    8.85527457409484
H         1.26168334887364   10.15556158275637    8.68282805039076
C         1.52141941377126    6.79670656942182    8.44108049768275
C        -3.97392910532275    4.47156699824916    5.49741181696010
H        -4.20868422273675    5.49535046156758    5.25312830052922
C         0.07383692682273    8.70802475252585    9.73101615601596
H        -0.51664580327767    9.43641437362969   10.26404772530858
C        -1.20349649785172    6.88208470663715   10.88820777627157
H        -1.86236994129441    6.16728731281754   10.38459375587640
H        -1.79311231532039    7.71649883758716   11.25813289388337
H        -0.71670455176217    6.38656762789481   11.72881177417787
C         0.46536261638273    3.95986537891430    3.91242850895434
H         1.46089963006039    3.74370335866661    3.53080509977373
H         0.50058492582373    4.85588620137967    4.52737492008188
H        -0.18626935636658    4.16175478727054    3.06519958229115
C         2.31668931733657    5.72069036076504    7.76891533059386
H         2.26652726709942    4.79585391217727    8.36007557667150
H         3.35323556905832    6.02751086010973    7.63855169420041
H         1.88141500167917    5.53512054487424    6.78341781771396

