93
CSD_code = RONLIR | q = 0 | S = 0 | Stoichiometry = C32H54NO3PPdS | MND = 4
Pd       -2.94061523317055   24.19224708322472    9.96949249323565
P        -1.26421014785274   23.35695328257023    8.70192421112382
S        -1.63864373761912   22.58287289555737   11.83117871543829
O        -1.56123271064972   22.01743293234213   13.15340596687608
O        -1.20197463049896   23.97398047506124   11.75850079270128
N        -4.48898543106328   24.73780220474689   11.21669158293043
O        -2.93478789059984   22.33630625844958   11.18638603488672
C        -0.47179621233884   21.67219679714323   10.80709260275374
C         0.07511565315530   24.51946013768997    8.10642890435977
H        -0.47928294183547   25.30497376630029    7.58254652639360
C        -0.31510655738009   21.98057652690748    9.46308309657531
C         1.11229793043454   19.88017651037741   10.65413950180041
H         1.66313677514306   19.07306515774417   11.11308650507495
C         0.74725838453771   25.12566190493505    9.35014098731240
H         0.81719881344590   24.35758047207257   10.12704618573307
H         1.76606892529270   25.43631115174889    9.10388918513467
C        -3.47425306843031   25.65781792352902    8.65606380674593
H        -3.92437666218321   26.50313722693749    9.18246055798314
H        -4.23712071028002   25.27786690566712    7.97035720748554
H        -2.65952945894019   26.05182814872819    8.04763075861269
C         1.27842090847307   20.16549228638971    9.30850564445389
H         1.96063690469133   19.57798479786103    8.71069611901828
C         0.56957228751164   21.19646848469771    8.71811152252398
H         0.71158394338743   21.38055554619364    7.66499286723262
C         1.84280094784387   25.00750047455949    6.32161684750149
H         2.09709285519570   25.84506561369149    6.97785764094724
C        -3.23444537377774   21.73794692830171    7.75812271590050
H        -3.22274942216965   21.74705589482945    8.85895560103595
H        -4.11171252487941   22.30667021076208    7.43557888450721
C        -4.25028254764765   25.56616647032748   12.23842882663028
C        -2.39517230167917   19.37329476562737    8.03919009452485
H        -2.56633110202147   18.33125270696489    7.77691718606701
H        -2.49299199931700   19.47831442617509    9.11822189569428
H        -1.37206937759635   19.62455592141694    7.77086284950562
C         1.11205033545626   23.93196774456453    7.14341414606039
H         1.85062377761155   23.37589896697233    7.72356238709790
H         0.64049895646634   23.24093291066441    6.44200689081987
C        -2.29653970693423   23.42319489720425    6.08437954244151
H        -3.04187370099192   24.13512298928269    6.44128496042683
H        -1.40146543187291   23.98967013888126    5.82601050372169
C        -3.40101291352341   20.27548788397312    7.32793157233440
H        -3.24731561737450   20.18922107354468    6.24665307077572
C        -1.97803102968833   22.45279240967897    7.22370818398203
H        -1.25295863178015   21.71303483375437    6.87695350684822
C        -0.00844702518187   26.32269830179542    9.93638858479478
H        -1.07001287019125   26.03812757804932   10.02211288451951
C        -3.02362262904505   26.41110955139472   12.17711831726351
H        -2.98444480123395   26.96136905852685   11.23454414685571
H        -2.14918313471566   25.75077849605535   12.22184677818405
H        -2.98683843416628   27.10938188022396   13.00922339189612
C        -2.81878291118652   22.76436765086983    4.80049209449224
H        -3.66949674506514   22.12224386645384    5.04563943804097
C        -3.30210847343836   23.84894767143911    3.83834747668864
H        -3.69320206143967   23.40557996776795    2.92553699791149
H        -2.48240228219990   24.51318228225910    3.57221513624291
H        -4.08955085259572   24.44464877951314    4.29407362192676
C        -5.56933299446500   23.95345298120872   11.22883243832831
C        -5.77048305806701   23.02889927913463   10.07224717140176
H        -5.14732902825198   22.14523319552201   10.23681766153967
H        -5.44746533271150   23.51358188496326    9.14554242140197
H        -6.80987862125575   22.71850727217848    9.99189913628924
C        -5.11449980203002   25.63181873164469   13.32659221495699
H        -4.89826000895743   26.30579949066929   14.14049058570722
C        -6.23622099754712   24.82416775575805   13.35572605944472
H        -6.91592983692590   24.85409981424825   14.19418998979869
C        -4.82141097795744   19.81435416492404    7.65272931976170
H        -5.55722415900168   20.42654405349792    7.13545181430627
H        -5.00166376951213   19.88796753157305    8.72278154212036
H        -4.96710218763142   18.77927534698107    7.35207403670815
C         0.22513577409918   20.63722321832147   11.39857412253978
H         0.04596739184470   20.45244819461612   12.44608932137123
C         0.52472177721730   26.62317210252827   11.33534198848828
H         1.59662460211662   26.81388983572862   11.30420108731927
H         0.33686688809242   25.77246739816343   11.98434096603958
H         0.03331348500972   27.49843389739406   11.75398993744451
C         0.97312727838326   25.53838883981738    5.18431375347195
H         0.72696788454018   24.73867824089734    4.48779262301606
H         1.50357699072884   26.31294168575917    4.63506656984121
H         0.04759248315352   25.96915517347636    5.55881790647366
C        -1.74372340538162   21.91698658324073    4.12353606307872
H        -0.87293761448598   22.52631767165191    3.88878843173515
H        -2.12332737452536   21.49703259543374    3.19472067911258
H        -1.42796618444374   21.09305795773959    4.75856201053149
C        -6.46988405262264   23.97801710029291   12.28696436840397
H        -7.33338103395195   23.33158412783566   12.27073070225669
C         0.12094602135534   27.56161190087702    9.05259215071407
H         1.16435542784439   27.86432098375104    8.97585006295207
H        -0.44102133668336   28.38907432343942    9.47912557933770
H        -0.25722406264776   27.38526145277160    8.04864743477260
C         3.13869574785911   24.43098742766599    5.75288780220701
H         3.66229123847189   25.17844610848345    5.16139497288055
H         2.92604920182746   23.57697510210133    5.11268045242533
H         3.79973554244367   24.10419535333779    6.55236866969653

