69
CSD_code = RONNOA | q = 0 | S = 0 | Stoichiometry = C14H35B19Ru | MND = 9
Ru        2.73681343634253    4.68363628469307   11.25863045486279
C         3.71823117065937    5.14431199628115   14.20073431732796
B         2.09151099171662    5.71701563612673   14.30030702356341
H         1.80406942399733    6.70117445577610   13.72587092359782
C         2.60291229303853    4.36395701536691   13.35404691700968
B         3.83884663014907    3.41997293738429   14.13353048576832
H         4.68309180838316    2.95828401132950   13.45880370401179
B         4.18432819572181    4.28225811397920   15.61546074306137
H         5.30218404143525    4.36530623235467   15.97294052046203
B         3.12068809023231    5.68182992952156   15.71877685698487
H         3.52514333121543    6.69302239064210   16.16219340634837
B         1.12782391869051    4.27237823282883   14.24415221187642
H         0.10673728389571    4.28906196995942   13.65540137401840
B         2.18740463142452    2.88102760025283   14.12638566918669
H         1.88255219598918    1.96452991598885   13.45089667472049
B         3.17360223881752    2.80463291162696   15.62309105702334
H         3.55687912460497    1.78533642453491   16.06907738354989
C         2.86375003901509    3.33333889361763    9.46361755052464
B         2.72939941610379    4.20608183777064   16.62639353425486
H         2.79348036076720    4.16760443709243   17.80129490726154
C         2.64205651860338    4.63255758326717    8.95235455333211
H         3.28595435346953    5.02136988554345    8.17312161357803
B         1.43384396654201    5.09893268504666   15.79880570172840
H         0.58937146797191    5.69082380848544   16.36637463463426
C         1.59229074926867    5.41493193731078    9.44933500238189
H         1.42904674859069    6.40750903740976    9.03904208984940
B         1.47693354762072    3.32090729070068   15.70282050825905
H         0.64821952831317    2.65516254868750   16.20943129361906
C         0.65149983299605    4.89477055110766   10.37913851831112
C         0.83390146325669    3.57147450701327   10.82755931618752
H         0.08975595561805    3.11834561021266   11.47313633364559
C         1.93522514537658    2.79781471768972   10.39452925104162
H         2.00707325582668    1.76226567656860   10.70243387585278
C        -0.56895033367786    5.68082796487849   10.76297416181160
H        -0.40191586596451    6.74946950021861   10.64216578740426
H        -0.84792053757938    5.48669686678414   11.79708685915533
H        -1.40860880032302    5.39422955205107   10.12646207152399
C         3.96986837221703    2.49213000987993    8.86960715174072
H         4.76454390112927    3.16873349654861    8.53329205759860
C         3.41023747738414    1.75669792438986    7.64483691944288
H         2.60540781792626    1.08574303977090    7.93976336651825
H         4.19323853244592    1.16907585135392    7.17237682018349
H         3.01954147607861    2.46220293531933    6.91421109684835
C         4.58341007575058    1.49668638746958    9.85439259189757
H         4.87682248381691    1.99461773576935   10.77628363344952
H         5.46951976486958    1.04868306844330    9.41204326568245
H         3.88865916343395    0.69543766463731   10.09442749007453
B         5.17126576913440    8.08574182179388   11.65513219835919
H         4.84789562272827    9.07807006563102   11.11442255676166
B         4.11567621124099    6.70175946187614   11.89061053244440
H         2.90419813900311    6.46703433622294   11.62136513573205
B         4.56687709931557    7.64767237769911   13.27539846044466
H         3.83273806327374    8.21400669070472   13.99187757850989
B         6.24315937646108    8.07411429422813   13.03781931057643
H         6.69988420077150    9.00113352807879   13.59566660476547
B         6.84778277892807    7.35345547281628   11.53737895754682
H         7.69543279447883    7.87793894901878   10.90977718796335
B         5.47626414019775    6.57872016572089   10.78621404722541
H         5.32757803726573    6.44367988531666    9.62248007134850
C         4.69954103518330    5.88056960231832   13.34085676170956
C         5.81537410143092    6.67541313803288   13.97920448835382
H         5.81922965767567    6.71140788188867   15.06239028457189
B         7.20342815938611    6.55980162878915   13.15526841890744
H         7.17717571489790    5.31606206161398   12.77184122127881
B         6.70786640971490    5.48525882734401   11.57732412654949
B         5.08012707529710    5.24922700525742   11.91405483999358
H         4.33460564911956    4.24858201302978   11.53776086668032
H         8.24273022411304    6.67911362328666   13.70209468576205
H         7.43319505720255    4.88057810563069   10.86874998334503

