75
CSD_code = RONPIT | q = 0 | S = 0 | Stoichiometry = C38H28FeN6S2 | MND = 6
Fe        9.71185018070124    3.79638031315172    2.03379602414021
S         8.60132948341599    7.08989249162423   -0.96663861691218
N         9.81671888974809    2.50123216122967    3.38752682626062
N         7.84385292723361    3.35824091904395    2.10458956757321
N         9.49528472606497    5.10361232654282    0.72269374070997
C         7.53333841475746    2.51517403803379    3.11799690690602
C        11.01247525038840    2.17042384343127    4.02516620234223
C         8.67830351859165    2.06312303746101    3.82969829113311
C        13.26819016094038    1.36071334992717    3.87062384868189
C        12.03778449678046    1.57581998896074    3.29021057916976
C        14.84525850190041    1.55025103005160    5.78623854184173
C        11.23163860086636    2.49140255824836    5.36230958575734
C        13.51290137034511    1.73018360741522    5.19376134749226
C         6.85853994783408    3.78995365262761    1.32727730660642
C        16.25194508815149    0.90175040219325    7.63223429694231
C         5.53226253049695    3.46182519042997    1.53911022289632
C         5.19852462339129    2.64008523614963    2.61300276900967
C        17.24343777870155    1.70441875199288    5.60449002169636
C        14.99351211540115    1.06919527503986    7.08477095461295
C         9.11452908369002    5.93753549251947   -0.01190782544855
C        17.38014180885559    1.21995929987978    6.89490565118157
C        15.98666151569847    1.86564766709408    5.05217012893084
C        12.47007974191817    2.27934302698848    5.93481833738904
C         6.21367036855260    2.15025540180584    3.40475536994280
H         8.60159834045298    1.38360184170861    4.67237261601972
H        14.05120574173042    0.88860892916703    3.29690077352146
H        11.84142908317530    1.28737874818705    2.27017382644881
H        10.43324852770986    2.93527175608927    5.93945757374208
H         7.15278300543064    4.42173771727917    0.50415207926650
H        16.35358803589471    0.51910954817542    8.63723458957236
H         4.77358853911335    3.84119088059000    0.87421775627454
H         4.16992650422635    2.38054865523865    2.81110943185696
H        18.12056596340636    1.95695931051039    5.02692594947097
H        14.11714560624438    0.80245642958447    7.65748396563931
H        18.36239220349245    1.08997081750546    7.32393478984272
H        15.88102772551327    2.25736267668504    4.05063063955021
H        12.63856335093197    2.56687536842306    6.96222926624925
H         6.01423841774905    1.49051202975655    4.23454352994965
N         9.60701464005666    5.09146879606088    3.38757793111734
C         8.41125247739333    5.42219049654486    4.02521133164949
C         7.38583588792822    6.01667432556431    3.29031315097924
C         6.15537499920907    6.23140104789206    3.87074064767123
C         5.91073255566948    5.86170453971171    5.19383233534553
C         4.57827574361844    6.04103813091773    5.78626676606418
C         4.42968506539035    6.52197440562237    7.08480171571919
C         3.17112136497483    6.68864598035639    7.63220850659580
C         2.04315132130736    6.36975610564305    6.89482697046646
C         2.18020225670039    5.88540028446172    5.60440756387541
C         3.43709945431542    5.72495753320715    5.05214016383720
H         3.54303755732188    5.33330924217557    4.05060604305316
H         1.30325771842125    5.63230995088141    5.02680771438431
H         1.06080257971292    6.49913600766381    7.32381710202379
H         3.06919418069191    7.07120555398816    8.63721067683963
H         5.30586624283151    6.78920725399541    7.65757002516257
C         6.95367428017871    5.31276578353596    5.93487142999194
C         8.19216079417814    5.10104903080873    5.36233512506219
H         8.99065245577343    4.65725970786382    5.93940311932379
H         6.78527628989082    5.02514957955047    6.96227259083364
H         5.37223896053391    6.70340263946611    3.29709892389404
H         7.58208686433608    6.30514215573870    2.27026211588138
C        10.74545460833018    5.52922389301838    3.83004107649747
C        11.89042128731162    5.07700716276098    3.11846860334259
N        11.57983882275275    4.23414186624668    2.10491216594229
N         9.92900697802139    2.48929874004507    0.72268468602762
C        10.30853494830693    1.65327663184542   -0.01014529651252
S        10.81787561671743    0.49825657460143   -0.96385071993914
C        12.56512147544021    3.80227992991626    1.32764002078608
C        13.89146130478751    4.13004775785886    1.53969714374335
C        14.22526376192826    4.95148203991802    2.61380746589250
C        13.21015579814195    5.44147386254602    3.40549864151374
H        13.40968881324463    6.10092032613839    4.23550222735936
H        15.25393115703638    5.21049570075067    2.81227489307495
H        14.65014769188790    3.75057170653477    0.87488302182116
H        12.27072048032361    3.17102979492782    0.50415064163669
H        10.82215139581658    6.20854169050488    4.67288661279272

