54
CSD_code = RONVIZ | q = 0 | S = 0 | Stoichiometry = C27H20NO4PW | MND = 6
W        -4.23884495903167    6.36890738284536    9.39611382916744
P        -3.11357055946111    7.85002758929376    7.78000760862013
O        -6.74358403986566    5.88903031224224    7.57671205616669
O        -5.65338715822356    4.54456068479815   11.49584206132977
O        -5.63347866501476    8.84535116850840   10.68492906968343
O        -1.89333372222938    6.75330474946114   11.43853326582400
N        -3.19660221593218    4.63790910825674    8.50629172696283
C        -5.13122653450868    7.93380305165938   10.19950987090987
C        -2.72336057124926    6.60863373577378   10.66391643722155
C        -5.11954272405486    5.19591196686120   10.71792524440567
C        -5.79623977239899    6.08006394266735    8.19478846043701
C        -3.92024900683120    9.45554002497803    7.45010165057335
C        -3.22124940914090   10.64310560556302    7.25982489604476
H        -2.14330898195968   10.66247459201035    7.34429123114886
C        -3.90654031720798   11.81298007068235    6.98506088602162
H        -3.35810614271694   12.73365509972370    6.84692039062165
C        -5.28807823857405   11.80829725188623    6.89030671189742
H        -5.81798918845992   12.72548250295810    6.68002633258526
C        -5.98856122121325   10.62704843104085    7.07147497189542
H        -7.06618571312757   10.61948750814535    7.00230130989143
C        -5.30783890546864    9.45680720225053    7.35011796474357
H        -5.85047588331577    8.53354253345926    7.50423886186547
C        -1.46622726836846    8.37745046896619    8.34495872169160
C        -0.27324463693001    7.89796172304469    7.81614490269450
H        -0.28499026833146    7.25089968881660    6.94836218555688
C         0.93302959022781    8.25184862878631    8.39754384015835
H         1.85752745747839    7.87794475767473    7.98125733456459
C         0.95694781756523    9.07612330211543    9.50920847385498
H         1.90001602545839    9.34759631139237    9.95975028301455
C        -0.23104712168003    9.54508397376169   10.05024391038497
H        -0.21496534726139   10.17925165137682   10.92412660266076
C        -1.43608794641438    9.19041195494838    9.47761336207828
H        -2.37201125323947    9.53498219048238    9.90174568197994
C        -2.81899154353991    7.34714223503682    6.04617429193636
C        -3.41182890834564    6.18403771188426    5.57127825544663
H        -4.02840320568164    5.59065025214375    6.23409226270766
C        -3.22864809706205    5.79106626733991    4.25697463039610
H        -3.69097289527667    4.88351171354077    3.89670360971471
C        -2.45715484968154    6.56348481175754    3.40606784751194
H        -2.31096328339059    6.25775868778500    2.38062688008990
C        -1.87977954081859    7.73653609529460    3.86793401090864
H        -1.28833866355903    8.34613137299590    3.20026643512530
C        -2.06168944967578    8.13140224109073    5.17942071071226
H        -1.61750418596680    9.05038843346114    5.53524981500536
C        -3.84853757741370    3.52185877258164    8.17127959712823
H        -4.90767722064868    3.49449809579601    8.39959482271373
C        -3.24132072819613    2.43810932607023    7.56328685471455
H        -3.82428893396340    1.56492153995592    7.31574372708675
C        -1.88501559190801    2.49550738936193    7.28121950239418
H        -1.37963439819027    1.67001855069619    6.80421251209427
C        -1.19897553124729    3.64620164222382    7.63735680946546
H        -0.14131126747592    3.74464483666407    7.44905822418257
C        -1.88910336567264    4.67909320568976    8.24467788305588
H        -1.36575388080425    5.58375765219805    8.53359118099419

