72
CSD_code = ROPGUY | q = 0 | S = 0 | Stoichiometry = C38H29NO3Ru | MND = 6
Ru       27.68301271018564    2.31324754680487    7.46192165619439
C        28.28927258271156    0.86419044319389    6.43421139977103
O        28.68231548537208    0.07082365661895    5.70409229482858
C        29.41096931393277    2.84927343407244    7.88626866033247
O        30.46792928227974    3.23874781911414    8.11862705938508
C        26.96428774316418    3.14424383324201    5.88214511338062
O        27.04580393172668    3.72002933844578    4.85595988300638
C        24.74384198011862    0.47956651983926    5.14985120592596
C        24.22937810889670   -0.61624823340409    4.43309506672074
C        25.06000644794455   -1.36243153416161    3.59294874176660
C        24.54538036166521   -2.43428313206358    2.89133765891022
C        23.20732781729089   -2.77527112397608    3.01706624266944
C        22.37927544920335   -2.03787177934450    3.84972018502460
C        22.88103008272949   -0.96347968051425    4.55653758071254
C        25.15076530823886    1.43191548129315    5.77972085314786
C        25.70626969356339    2.48739448059817    6.52678477456156
C        24.91704746786610    3.29953456257612    7.35875094190838
C        23.45364597161576    3.18819474291425    7.34838797899884
C        22.73196621928129    3.16410418057781    8.54151324101374
C        21.35522383382786    3.05240459334296    8.52376599925164
C        20.67721467024466    2.97312437685532    7.31844873746330
C        21.38483721252340    3.00600074514770    6.12800734491882
C        22.76256208769760    3.10746611758358    6.13971657194972
C        28.39285806642118    5.52600444691340    9.93123788771330
C        29.20936355211223    6.32641210841458   10.74947379567297
C        28.65014854418581    7.35992834479283   11.50800773581837
C        29.45691102264927    8.13755293492562   12.31401375759043
C        30.82200153711530    7.89949501957093   12.37310758950022
C        31.38273744578020    6.87830831693081   11.62060529900395
C        30.58677710486760    6.09177934381097   10.81235190943962
C        27.68824446727970    4.82883870989775    9.22550408918944
C        26.94448638993270    3.97966477413207    8.41610750964404
C        25.58717266080534    4.20828239030364    8.23595612071401
C        24.84683826331868    5.31408777514079    8.86760852713785
C        23.99578832174648    6.10815755150239    8.10146042284826
C        23.30845422071729    7.15890211197497    8.67721928249008
C        23.45708399590129    7.43307085932297   10.02668833084396
C        24.29941209159272    6.64940396721269   10.79676993169389
C        24.98987085968162    5.59816718551436   10.22350501913858
N        27.08281195559113    0.96452133484989    9.37433940411259
C        28.14556071754943    1.08987829752818   10.37736183814027
C        26.97774756464100   -0.44031258922426    8.96859545916275
C        25.81446254611314    1.35160528774909    9.99319025318099
H        26.10121081554658   -1.08962633354124    3.49994860035257
H        25.18966725246183   -3.00879524312444    2.24176580347418
H        22.80969291864567   -3.61468741892503    2.46602495899758
H        21.33624908006112   -2.30329207707644    3.94587611976149
H        22.24273665293259   -0.38064910849883    5.20599336304632
H        23.25383064198607    3.22261640800687    9.48571873780057
H        20.80852292278937    3.02951779208234    9.45506159522956
H        19.60058554718125    2.88965696140431    7.30715145126526
H        20.86090177270282    2.95343999034507    5.18496460867897
H        23.30818709310984    3.14942626926922    5.20878749799130
H        27.58588950382242    7.53968483231909   11.45048111063628
H        29.02327463177400    8.93586494983592   12.89907981606831
H        31.44921499043584    8.51206981511692   13.00405448282735
H        32.44700384244116    6.69783238328446   11.66582415263220
H        31.01335414894811    5.29646771215499   10.21872333259392
H        23.88691479477212    5.90674219378011    7.04522664782387
H        22.65552535084282    7.76897934211270    8.07014007925524
H        22.91898605588036    8.25472674157268   10.47603548034883
H        24.41644118058228    6.85556597576205   11.85132338292742
H        25.63794839414150    4.98578956134343   10.83473145292501
H        29.09673352304295    0.76842107867205    9.95109220788766
H        28.23794476008679    2.13096537868167   10.68957554983356
H        27.92555464202571    0.47197428466614   11.25989189652472
H        26.20704061212836   -0.55132862449841    8.20438051194490
H        27.92872124756416   -0.78491783860284    8.56258124053599
H        26.71472676629691   -1.07567745856574    9.82668296436388
H        25.86281575650660    2.38762347591328   10.32735871757682
H        25.00049673627665    1.24673262393306    9.27510542865028
H        25.59473327465827    0.71535177299705   10.86263545300081

