122
CSD_code = ROPGIO | q = 0 | S = 0 | Stoichiometry = C61H38BrF15N4O2Zn | MND = 5
Zn       -6.21331806991947   -5.56419650774274  -11.80723994988718
Br       -1.80141539149473   -6.89361746595836  -13.33011845902250
O        -1.70601530013937   -4.04478129244408  -13.93490813221858
H        -4.51096272057971   -7.55257332781271  -11.00852959335713
H        -3.64369027125722   -6.36785755572606  -11.47390108246828
O        -4.44759939841406   -6.59294183103728  -10.99196756899586
N        -5.36007055395011   -5.40404902941551  -13.65872391469918
N        -7.07242783554982   -7.32808531629446  -12.38457835029227
N        -7.35424577727461   -5.57742536991607  -10.12860963851003
N        -5.57324151072899   -3.68992895813014  -11.36544416218519
F        -4.50461387373823   -2.90270799350459   -7.37688636865625
F        -4.75002496770944   -1.25808618341351   -5.23986236375219
F        -7.13949927123859   -0.05334973305974   -4.71071453310280
F        -9.27542063287310   -0.50066917088732   -6.34769281339045
F        -9.01636090638591   -2.12714275099972   -8.49851356067840
F       -11.15920825946954   -7.27168198664343   -9.86563793910653
F       -12.79399812468293   -9.08340996612390   -8.68881949286136
F        -9.20574317862263  -12.13808786002094   -8.41884173559834
F       -11.82619974345658  -11.52870659857373   -7.96726588961725
F        -7.56938493045224  -10.31035921990899   -9.57407298486445
F        -4.42171850931200  -11.66969692561451  -16.57528874078142
F        -4.71411767953180   -9.99078329032891  -14.46416494411090
F        -5.47302906590659  -11.00238325609126  -19.00196945997530
F        -7.13223331059207   -6.99090465315151  -17.17703608265791
F        -6.82668563098176   -8.65287050412586  -19.29493303342331
C        -4.23793204715772   -3.24309206238132  -13.37047497158757
C        -4.57936696951507   -4.38476190444005  -14.09530116007706
C        -4.12497438715753   -4.65375137032418  -15.43444984027094
H        -3.52385062216733   -3.99655371439051  -16.03222461507776
C        -4.61552328239891   -5.86605887787078  -15.77466387512981
H        -4.46530942854170   -6.39801333845349  -16.69385275948847
C        -5.39598065055315   -6.32117114980147  -14.65428451458115
C        -6.06897046786595   -7.54227954762370  -14.60477900219523
C        -6.86564602506603   -7.98640244937101  -13.55151728931821
C        -7.64061733931589   -9.19929832399484  -13.57776811276169
H        -7.68299190434342   -9.89852704803425  -14.39000307324297
C        -8.30867638151390   -9.25604348930220  -12.40407507307248
H        -8.99941143744111  -10.00994973452269  -12.08047588086906
C        -7.93623681304013   -8.08004452157042  -11.66170441372170
C        -8.42495511470279   -7.75960001935913  -10.39506397812965
C        -8.13774030270221   -6.59143237381626   -9.69013674098013
C        -8.61879891393151   -6.30602042806145   -8.36299059566345
H        -9.23922372148241   -6.94792490068753   -7.76862699544100
C        -8.12072507769576   -5.09684714246227   -8.02398705067304
H        -8.26018639923921   -4.56739709245295   -7.10166974056379
C        -7.33385200202251   -4.64711442815101   -9.14351243514405
C        -6.62339160810687   -3.44918998165942   -9.17100814292629
C        -5.79518206387870   -3.02117189446437  -10.20997523640965
C        -5.05758610430629   -1.78528441164968  -10.20581000332031
H        -5.06182921575216   -1.05353118979707   -9.42152442124873
C        -4.37226875839395   -1.73997257691305  -11.37026158357053
H        -3.69713820128456   -0.97850141640422  -11.70686751969218
C        -4.71655323085706   -2.93361565159436  -12.09790860126251
C        -6.75443818122984   -2.55789759526297   -7.99454852892655
C        -5.67967435474788   -2.31230058788779   -7.14247487372315
C        -5.79804954103228   -1.47403060431383   -6.03875294633953
C        -7.01647898572889   -0.85932993125005   -5.76579859542360
C        -8.10526125256356   -1.09025532541620   -6.60156884497313
C        -7.96439500534358   -1.93159724720183   -7.70029712076637
C        -9.32273688676572   -8.74516257568915   -9.75030788303573
C       -10.66411767591505   -8.45771222399198   -9.50526955336249
C       -11.51225461768107   -9.38416574628074   -8.90729716955899
C       -11.02091771731638  -10.63351242328131   -8.53957945950965
C        -9.68399761632113  -10.94320060827510   -8.77288746998019
C        -8.85412628468356  -10.00192355216902   -9.37190313745484
C        -5.92596422162091   -8.44723670178722  -15.76835425759821
C        -5.24345188275469   -9.65604625499642  -15.64384469269821
C        -5.08589144396068  -10.52099913746633  -16.72127992612944
C        -5.62064901963900  -10.18195862423386  -17.96101799606881
C        -6.30938810121273   -8.98161300402019  -18.10870920388489
C        -6.45529733403177   -8.13124473757457  -17.01744859838404
C         0.51455232123323   -3.84957231414709  -14.90028903576681
C         1.68819210288364   -4.52019839151723  -15.21249683813852
H         2.49398634423821   -3.95402894479060  -15.65059486523992
C         1.87369584543141   -5.87990649120034  -14.98605053835028
C         0.82324876897862   -6.59076217886884  -14.41905462409944
H         0.89312293930631   -7.64715562689213  -14.22405338378355
C        -0.34459591401482   -5.93487060674278  -14.09452922554848
C        -0.51902549863757   -4.57284691917614  -14.31358746851796
C        -1.97825665678467   -2.74800328760929  -14.27164531665045
C        -3.27640779056846   -2.30512094293127  -13.98944024556048
C        -3.62292192011721   -0.99987326726535  -14.28586775119112
H        -4.63552382635357   -0.69077669691443  -14.07992682244448
C        -2.70674044421652   -0.11223358908924  -14.84218859434602
C        -1.43243518387278   -0.58604655915841  -15.11250595658442
H        -0.70162849910698    0.07640558977118  -15.54284084554049
C         1.36620158129276   -1.58542193604465  -14.32728666979861
H         1.29301701711814   -0.51984592793839  -14.52626004500267
H         2.38250476187304   -1.90615579549027  -14.54068752331295
H         1.16766969895059   -1.75283570137288  -13.27039929539348
C         0.35800805297638   -2.36670810239516  -15.18617455582233
C        -1.04771813172403   -1.89746611836023  -14.84903517556320
C         3.19584217710805   -6.53121560726907  -15.35872511109028
C         3.45382966882434   -6.32676581195248  -16.85830628338233
H         4.38296957631259   -6.81364545788579  -17.14488462539098
H         3.53295199532009   -5.27326321258130  -17.11151918689177
H         2.64412471580745   -6.75878493740632  -17.44242116586540
C         3.20871272429428   -8.03501258786003  -15.07325925017481
H         3.06591803270591   -8.23549637460656  -14.01405173114478
H         4.17147366658509   -8.44912304989341  -15.36429262701592
H         2.43801537007459   -8.54894071517483  -15.64300821218010
C         4.31820152614119   -5.87600327377310  -14.54152964501971
H         4.13018312112595   -5.99934767932518  -13.47710422657177
H         4.39639347273552   -4.81303539586859  -14.75289658583632
H         5.27210047554371   -6.34086730199916  -14.77929578532748
C        -3.13966387784386    1.31641775238408  -15.13078312691224
C        -3.64481027143960    1.95950384544185  -13.83131193233204
H        -2.86130744455855    1.94911013548953  -13.07613164000497
H        -4.50933944951971    1.43406787966243  -13.43575341010603
H        -3.93186792080427    2.99248377198035  -14.01408274827243
C        -4.26804497894048    1.28863466907150  -16.17100948556795
H        -4.59286475160031    2.30158947929736  -16.39753867906197
H        -5.12542873391194    0.72808718217038  -15.80941744207772
H        -3.92046860281143    0.82389762847742  -17.09136064719241
C        -2.00091583777608    2.18102754188539  -15.67799775532815
H        -1.17604331212606    2.23570706476483  -14.97099203794023
H        -2.36483891585227    3.19222109826199  -15.84624062181707
H        -1.63623749076200    1.79681261230475  -16.62784398665888
C         0.62307321500713   -2.11897730203349  -16.68106227360304
H        -0.08903046264942   -2.67793416645740  -17.28517366193658
H         1.62601427120186   -2.43324018509072  -16.95493388520231
H         0.52434598014164   -1.06474912626596  -16.92187877502831

