40
CSD_code = ROPSOE | q = 0 | S = 0 | Stoichiometry = C17H19CrO2P | MND = 8
Cr        0.43156188388415    1.62728740906516    3.00249921059380
C         1.11838179370743   -0.45528902418469    2.32916926518120
H         0.54953012118759   -1.37387225556768    2.28873240081679
C         1.31305243712877    0.44023856754313    1.26030077846898
H         0.93196041399550    0.31736619025048    0.25719886540056
C         2.22611847164620    1.42546353804889    1.67764140330475
H         2.68371178718685    2.16935404679894    1.03939979378077
C         2.60859533551489    1.13062837152194    3.00560329698831
H         3.40090156573421    1.61797920556672    3.55814141677545
C         1.92935658423196   -0.03852741009948    3.40205808845439
H         2.08516283257816   -0.58024556418419    4.32450431746123
C        -0.21478649898972    3.28324399595012    2.22754173185563
C         0.27275600767463    3.71912633983969    0.91885485009175
C        -0.08874002076203    3.00910255052460   -0.23211158806729
H        -0.77522347892109    2.17877994585521   -0.12964849207335
C         0.39619420088338    3.36705896410661   -1.47415220311159
H         0.10280195076293    2.80345538901980   -2.34871134667446
C         1.25386297994662    4.44792152776235   -1.60702009000776
H         1.63694652534770    4.72454176943140   -2.57795876967418
C         1.61221969845656    5.17352675165560   -0.48245910151649
H         2.27997429459984    6.01891086882198   -0.57565862375427
C         1.12185333045718    4.82023092430969    0.75954187497726
H         1.42454365961507    5.37469609118048    1.63989317957737
C         0.07880599173177    2.14579926193402    4.68868001782563
O        -0.11357656697425    2.48887957587567    5.80101512477250
C        -1.12017838951792    1.15945432490963    3.81015088009657
O        -2.11351763699162    0.81522304792772    4.33436435639442
P        -1.06246134803365    4.56124233104790    3.07481322462856
C        -0.11948155517152    5.53413047788750    4.31790459406475
H        -0.78997894484980    6.20590367715717    4.85095513337773
H         0.66096706663330    6.10991842967080    3.82538320617321
H         0.33519828234690    4.83633710915633    5.01778585502637
C        -2.51102058433768    3.97606488610722    4.01277735293553
H        -3.12761719358788    4.83131296003543    4.28740538999150
H        -2.19039089878912    3.45704003795950    4.91236332618017
H        -3.08193891556098    3.28830816530882    3.39124785474592
C        -1.77192209687979    5.83630504624883    1.96561550859934
H        -2.26288170285069    6.61393150993269    2.54669848905387
H        -2.49487961548241    5.35332261414662    1.31006265783409
H        -0.98516176757735    6.27364835145010    1.35501676942770

