45
CSD_code = ROPVOJ | q = 0 | S = 0 | Stoichiometry = C17H18MoN2O7 | MND = 6
C        -1.44850729292929    8.21060860037494    8.83477344949009
C        -0.28133230908929    8.83270196072989    9.35281459219548
C        -0.14611596273793   10.22339033302144    9.27576961228358
H         0.76277496475909   10.64700184793736    9.67637358098479
C        -1.13885427694750   11.00056762198282    8.69804988973914
C        -2.30072959245857   10.38363053765049    8.19667878822035
H        -3.05917036023689   11.01002216175928    7.75660595771976
C        -2.44515205234620    9.02539290223877    8.26803074394046
H        -3.33567258614614    8.55704286159546    7.87609872054007
C        -1.60042414279974    6.79776542578998    8.88063189496851
H        -2.52388496884552    6.35893308789048    8.50156871651483
C         0.06295800829826    3.95840792876397    9.63121699525294
C        -0.00455621048672    2.49622312403478    9.61283536068182
C         1.14138249667905    1.75876436362894    9.91014773759595
H         2.05627367449022    2.28641262646345   10.14063704823263
C         1.10509896101700    0.38040542685613    9.89602201405987
H         1.99641897211241   -0.18992116327602   10.12196814806717
C        -0.07914911999161   -0.28421457282991    9.58553410565803
C        -1.22730651527575    0.45111880728873    9.28633290706010
H        -2.13184511214107   -0.08441003429436    9.04634233276992
C        -1.18874494968689    1.82684353626816    9.29705725752195
H        -2.06572895910376    2.40839476930058    9.06443855101815
C         0.04821254160198   13.03088762331601    9.03906798811351
H         0.18212612099644   12.89773790966479   10.11636222192251
H        -0.13641848109692   14.08203998054720    8.82427892491559
H         0.95145672391672   12.70500572609529    8.51594251010280
C        -0.18612210703427    5.20776372014274   12.87021517789960
H        -0.84536582736221    4.56915565599525   12.27337179879141
H        -0.71453285290600    5.48586261129771   13.79482128254658
C         1.11043005929777    4.48534469665102   13.20154698172009
H         1.68840194272911    4.33105259152026   12.28894666464929
H         0.89771847398288    3.52280172143814   13.65912883346044
H         1.70939398039307    5.07772342537125   13.89080763502322
O         1.92539614426254    6.38976664688582    8.23176715188463
O         2.51990958026621    6.58163172768324   10.96933817499816
O         0.66227026730377    8.11998458584039    9.92219040571478
O         1.15777504736003    4.53902558486008   10.02204541637919
O         0.02838904543743    6.38838145118183   12.10448844861756
O        -0.16201529695111   -1.63475288639267    9.56122008704550
H         0.69536194340203   -2.02674942053957    9.76938500637629
O        -1.09190347596366   12.34229323749215    8.57392048157475
N        -0.68636678392425    5.99321663778432    9.32308067920808
N        -0.97186288385710    4.66456159435073    9.27651007438210
Mo        1.38254142206752    6.42980434777928    9.78719905572403
H         0.81547174993919    6.82497867789345   12.46613659442596

