109
CSD_code = ROPYIE | q = 0 | S = 0 | Stoichiometry = C52H48N4P4W | MND = 6
W        -0.00041222410410   -0.00142583589506    1.76894487959315
P         1.82397769460765   -0.10672239077305    0.21125207421306
P         1.75426854841087   -0.51663586814699    3.32555800866920
N        -0.32109231454649   -1.85770194238553    1.77036063097205
N        -0.51161202584666   -2.96789906478233    1.77303119096902
C         3.39807608105958   -0.07785783975368    1.20187090753404
C         3.22118751673010   -1.08294409110087    2.33185674882235
C         2.00378755338678    1.31992561641687   -0.90048806278539
C         2.48346468898072    2.55013182011255   -0.45955504231211
C         2.44631000645661    3.65204655144934   -1.29581189293640
C         1.92406774967563    3.54411013697146   -2.57313963501415
C         1.43667912061324    2.32516060668097   -3.01746532295904
C         1.47170916983331    1.22398902102355   -2.18534409879482
C         2.21409813536855   -1.46409395274544   -0.94578161147248
C         3.32572477213102   -1.37690177873753   -1.78241877809231
C         3.61958479402393   -2.40445034640092   -2.65665955489929
C         2.80810585250016   -3.52847277239587   -2.70728951937876
C         1.69982360521900   -3.61771648318284   -1.88435581757411
C         1.40214980316523   -2.58790135657611   -1.00779317328724
C         2.58552166695370    0.63214870158422    4.47578346571195
C         3.61145815126112    0.17806226288471    5.30312043769702
C         4.23936853161282    1.04772104000933    6.17254264492700
C         3.84965724025111    2.37793179380321    6.22841485907389
C         2.82648939748868    2.83247600797593    5.41598249029668
C         2.19472683150284    1.96212818166943    4.54368102244976
C         1.44504794902341   -1.91429179961132    4.44575062017785
C         0.97932596707310   -1.63607656282357    5.72985421209825
C         0.57911419809360   -2.65557541821974    6.57045788787191
C         0.62843295928994   -3.97058500744443    6.13553773651763
C         1.08062208989293   -4.25665589798924    4.85897223180260
C         1.48294414131783   -3.23715532166022    4.01412909625422
H         3.52207937090280    0.92496548351847    1.62646158748322
H         4.26584705517324   -0.31411103619598    0.57805072032033
H         2.99171777291635   -2.06692263007123    1.90695871359576
H         4.11871828357555   -1.16008065270796    2.95346046223181
H         2.88199367902267    2.65768923558320    0.53894752744081
H         2.82128073393304    4.60190561688173   -0.94291975082023
H         1.89425506131278    4.40770216570424   -3.22165391020413
H         1.02403359209383    2.23647631799787   -4.01244401171150
H         1.09348847916801    0.26962854286104   -2.52663313772629
H         3.94833652035524   -0.49171394699719   -1.75643298853290
H         4.48138227093949   -2.33062364932592   -3.30478873396957
H         3.04101731747353   -4.33014006615555   -3.39311634624520
H         1.05970139590721   -4.48679487165792   -1.92349617447263
H         0.53003232717821   -2.65563108800191   -0.37657638855340
H         3.90244049662037   -0.86420606737343    5.27406420539345
H         5.03298581934481    0.68980912953322    6.81310290745027
H         4.34286978162420    3.05513817441325    6.91063344823713
H         2.51262441165424    3.86502106553233    5.45999236438310
H         1.38920432012984    2.31752676662930    3.92035206828330
H         0.94414241918845   -0.60762375372098    6.06369260706795
H         0.22302279101503   -2.42645184671962    7.56485004964061
H         0.31293881584126   -4.76947486401754    6.79088628936851
H         1.11459233818973   -5.27982486163547    4.51350962622054
H         1.81948541636022   -3.47937738451685    3.01643596456257
P        -1.82326539406643    0.10081290667721    0.20914698571422
C        -3.39717541310017    0.06084319175090    1.19946246787766
C        -3.22742665210165    1.06711252842746    2.32949248703362
P        -1.75659444741032    0.51121461562163    3.32352513555186
N         0.31935910429887    1.85483397403281    1.77105029945342
N         0.51162352073330    2.96470693927871    1.77273254549202
C        -2.58262538463025   -0.63544958932054    4.47961439199404
C        -3.60591415919212   -0.18004186415641    5.30955248732275
C        -4.23026645201585   -1.04807479132984    6.18315743991498
C        -3.83988378125930   -2.37803849526436    6.24032095095459
C        -2.81979713602042   -2.83399942594530    5.42481653503306
C        -2.19142625302882   -1.96522758580884    4.54849107343158
H        -1.38823254514384   -2.32169148904254    3.92277061496450
H        -2.50572375674022   -3.86644821667174    5.46953633489470
H        -4.33040050326940   -3.05403535903714    6.92567519964755
H        -5.02178309076245   -0.68917393437323    6.82575301870501
H        -3.89758910125764    0.86200337198551    5.27897767531115
C        -1.45024825167979    1.91528650813249    4.43635483749975
C        -0.98143281992792    1.64509104426471    5.72105095662089
C        -0.58190120068337    2.67005291315645    6.55532914205993
C        -0.63492512640532    3.98257525300198    6.11335368409080
C        -1.09031576177069    4.26072926115541    4.83617928495465
C        -1.49197949428680    3.23574999332321    3.99767868078087
H        -1.83105679450670    3.47185075700975    2.99934973054962
H        -1.12704920465627    5.28190666307768    4.48516599689938
H        -0.31970029801192    4.78570363095787    6.76363923581886
H        -0.22323592567355    2.44710783381819    7.55020535678143
H        -0.94318481978356    0.61854075419634    6.06034745887212
H        -3.00568675509737    2.05289246717017    1.90474993074926
H        -4.12542016422255    1.13723205847453    2.95127392487523
H        -3.51339472517803   -0.94291406976068    1.62412399479042
H        -4.26687954694062    0.29043286265651    0.57585722177036
C        -1.99839908060630   -1.32070560243439   -0.91000594481233
C        -2.47510132916308   -2.55449937404467   -0.47603081954227
C        -2.43574584492991   -3.65144041842486   -1.31869606438099
C        -1.91425224871446   -3.53490876212152   -2.59557880673869
C        -1.42966982577425   -2.31233810888891   -3.03293625958326
C        -1.46695290323676   -1.21610725768631   -2.19443581669434
H        -1.09116724696602   -0.25889331635654   -2.53039552289652
H        -1.01762803091092   -2.21692655734016   -4.02754004134109
H        -1.88284726159200   -4.39459886703293   -3.24917582460986
H        -2.80858470669713   -4.60414664823577   -0.97124896897173
H        -2.87298360900244   -2.66873148556533    0.52196534133067
C        -2.21776480455201    1.46201243871144   -0.94193538227383
C        -3.33161119359912    1.37703869502649   -1.77581850078169
C        -3.62833255294801    2.40728455077075   -2.64591081765682
C        -2.81727394520884    3.53165469305747   -2.69546426331390
C        -1.70639831700330    3.61844625552882   -1.87576141337379
C        -1.40603168577192    2.58605594400271   -1.00315776556266
H        -0.53193037197619    2.65192693579947   -0.37450411011079
H        -1.06630370476356    4.48757259044095   -1.91439669981426
H        -3.05236509902856    4.33535674674043   -3.37815845065063
H        -4.49196006642116    2.33520453660234   -3.29179334425898
H        -3.95376196109466    0.49150451217983   -1.75119134150296

