78
CSD_code = ROQGEJ | q = 0 | S = 0 | Stoichiometry = C35H35MoNO4P2 | MND = 6
Mo        2.19597768636665    0.86256290684212   12.70083525858699
P         0.41504609301432    2.26359625555679   13.47699904064496
P         0.55084168443236   -0.47778901505852   11.59179363616319
N        -2.65789017657722    2.52513889603884    9.93232454059083
O         4.51713883676027   -0.70448881621538   11.40844682946319
O         4.34304747035605    2.77913868974311   13.81033398205489
O         2.13394634329023    2.61535569554892   10.15140419729448
O         2.83158383380463   -0.83790372687389   15.20601940038338
C        -1.00363999973412    2.49809782653301   12.32884503541780
C        -0.90064474149024    0.41314161760268   10.89525923093188
C        -3.01076427555231    1.71176117751197   11.09121725042368
C        -1.75144761679363    1.24166672677389   11.86581793991709
C        -2.18708429677434    0.40025041417850   13.05879306375352
C        -0.23105135384283    1.06463719136520   15.91919520592603
C        -0.86047393278966    0.98600715565587   17.14903200365532
C        -1.69577136693158    2.00900213582353   17.56321348503323
C        -1.89225229514239    3.11403525401689   16.74921205896832
C        -1.26347873318792    3.19259465019632   15.52150389218588
C        -0.43318395532213    2.16023988921387   15.09210292740566
C         1.75803995861279    4.23604618580011   14.79943013880085
C         2.36741720671970    5.46035516564487   14.98455750553782
C         2.27687181704793    6.43250143268046   14.00035849376074
C         1.58038954646210    6.16798952572468   12.83470079830455
C         0.96728382664617    4.94028818046903   12.64621209338474
C         1.04070606029336    3.96594438385892   13.63392511268614
C        -0.07139977592610   -2.36741465536891   13.55799168748001
C        -0.65051321089966   -3.52699044824533   14.04259890773210
C        -1.38903580022960   -4.33539329318815   13.19603569714935
C        -1.53921076995463   -3.98619571131875   11.86272487658153
C        -0.96090451929652   -2.82852782827376   11.37894173037979
C        -0.22831178048775   -2.00311167437081   12.22837876252740
C         2.08478801220962   -2.32141184696525   10.29179407579369
C         2.78358058306290   -2.88891318693896    9.24575868352844
C         2.71290053711224   -2.32454846600960    7.98153638964206
C         1.94633586921884   -1.19146590035760    7.77634577427695
C         1.24336275067420   -0.61989925712811    8.82414552006610
C         1.29696390980890   -1.18790773884016   10.09084241536860
C        -3.13769045839469    3.88906694275425   10.01954380855514
C        -3.04250314914798    1.92613702269707    8.67082634581294
C         3.64356854589761   -0.15373300485627   11.89821873214331
C         3.53146434404686    2.07020699727172   13.42952683728748
C         2.10824632658853    1.96467885914936   11.09165996774395
C         2.48906751841910   -0.22688540343550   14.30043021039965
H        -1.70935726661643    3.17828522288087   12.82034732662654
H        -0.60644702349637    2.99536262839766   11.43784027749943
H        -1.53566817351650   -0.33479788661074   10.40571603548422
H        -0.51303961997608    1.09332012597761   10.12973823599004
H        -3.57898470365192    0.82740957825373   10.78105735579481
H        -3.65059671293106    2.27810658350432   11.77755256306423
H        -1.30614504684040    0.06831857030401   13.60865284506529
H        -2.81689181234749    0.97925334715356   13.73274825581835
H        -2.74179866119220   -0.47829307971669   12.73233179953933
H         0.43231614548208    0.27440530915110   15.59442218979215
H        -0.69507006314653    0.12936173367553   17.78580321761564
H        -2.18744646542815    1.95194087635204   18.52309745168873
H        -2.53364570550774    3.91919960405229   17.07768222021610
H        -1.40080873106690    4.06807778521487   14.89991417011089
H         1.83588798674258    3.46642917121924   15.55970516033354
H         2.91993913839645    5.65653173652480   15.89158309853224
H         2.75584097135230    7.39032724524857   14.13937754858823
H         1.51671563002325    6.91973376152228   12.06106324608299
H         0.44166592517723    4.75515919385491   11.72026883779153
H         0.51657360340670   -1.73723739163688   14.21147484904183
H        -0.52130503491924   -3.80202100731532   15.07904453790853
H        -1.84113111552998   -5.24191747093761   13.57037940734112
H        -2.10468575387863   -4.62345294015583   11.19817329403674
H        -1.06097372454625   -2.57189399472444   10.33212645289035
H         2.14609742351008   -2.74998654085905   11.28627213721532
H         3.39037591391737   -3.76626195707988    9.41496111953126
H         3.26167572268030   -2.76286649735075    7.16122442983887
H         1.89731496383070   -0.74304615055283    6.79445065447582
H         0.66325746532534    0.27291217961664    8.63919193642789
H        -2.72937968597267    4.45975944666553    9.18588261108367
H        -4.23629683601772    3.95870097363521    9.98065581239622
H        -2.79293026633713    4.34317498973618   10.94618339415283
H        -2.63542826087107    2.52639978203125    7.85762638087063
H        -4.13474951957057    1.86551014452476    8.54211971533886
H        -2.62729725922682    0.92323372229730    8.59649788826413

