66
CSD_code = ROQGOT | q = 0 | S = 0 | Stoichiometry = C26H32MoNO4PS | MND = 6
Mo        1.54996454542814    2.89659308459252    2.17489418529991
S         0.61687638251032    0.48724580732012    2.17996764035342
P        -0.34087684274272    3.32478608029642    3.59575615447276
O         3.81763111002278    2.44287742274301    0.13418260770524
O        -0.28658421534610    3.64404442635901   -0.20292016019278
O         2.45597450502309    5.83749926531390    2.27000907212039
O         3.63022982182272    2.26155523835717    4.37846342404500
N        -1.73083373832313   -1.77855167381731    4.34657598386672
C        -1.58845704756316    1.96533908011056    3.68735114917469
H        -2.50004656701992    2.32761138208394    4.17466433383169
H        -1.82078967809796    1.76383239761224    2.63198004921207
C        -2.09718190361141   -0.46338074716533    3.83693473371043
H        -3.12386761893006   -0.20063016132256    4.12111220283293
H        -2.05077756969704   -0.47054281483605    2.74346200058402
C         0.29385389285054    0.26765546396117    3.96412946454534
H         0.44140744843377   -0.78695762958855    4.20133189399510
H         1.00417403611656    0.88361138616628    4.51933582445668
C        -1.14048317861706    0.64746679589132    4.33975254794129
C        -1.19820704858411    0.75698704086626    5.86373603754255
H        -2.21149898157779    0.97335231915160    6.19530220390579
H        -0.54800307442589    1.55747510149357    6.21152947525495
H        -0.87050236545596   -0.17601160158582    6.31422443167603
C        -0.84628072625052    5.96210279735289    3.10625677897166
H         0.02367179971965    6.09854359754668    3.73738633455850
C        -1.46111773233011    7.05337037056206    2.52570805361583
H        -1.07423184640389    8.04618819748974    2.70169926713097
C        -2.56822973426096    6.87122474928228    1.71189151882253
H        -3.04869352096626    7.72208806435516    1.25212959361431
C        -3.05109078938139    5.59507276367944    1.48261517627992
H        -3.90869320539201    5.44867595612983    0.84186352871693
C        -2.43646337101102    4.49807153615897    2.06230638188932
H        -2.82273128960104    3.51010537690638    1.85545755207449
C        -1.33207437548485    4.67395554451560    2.88724209693502
C        -1.41963578361923    4.28187404709820    6.00093072434758
H        -2.38520567904186    4.15013353908177    5.53157873362619
C        -1.33854127660874    4.79013329365411    7.28228264048898
H        -2.24130808403811    5.04171434229150    7.81987347018977
C        -0.10075211819152    4.98665719136630    7.87660078478159
H        -0.04135662709148    5.38616406243949    8.87815396940337
C         1.05669754294673    4.68454474935116    7.18072623633773
H         2.02237888022095    4.85281895070934    7.63405789434106
C         0.97762443325859    4.17143890208697    5.89702739749755
H         1.87830532432758    3.95166326220657    5.33934572401422
C        -0.25854093047344    3.95233642539300    5.30478657525221
C        -2.64890093167404   -2.28027293014465    5.34873880489068
H        -2.23635638310660   -3.19210754581101    5.77983410512986
H        -3.64186049247509   -2.51298664837365    4.93250048980972
H        -2.76814398755963   -1.54736338179078    6.14232585845214
C        -1.54143616593484   -2.75980241767653    3.29692960029435
H        -0.84727981990092   -2.37359535530445    2.55305232365070
H        -2.48102890129018   -3.02889471793157    2.78999890583737
H        -1.11716905941870   -3.66454632282166    3.73252405172449
C         1.86138254112268   -0.83512168473192    1.86512464432186
H         1.39352951994176   -1.74835001347315    2.24773805166109
C         2.02775422717945   -0.91962421221209    0.35675016435837
H         1.07335112806670   -1.12245202421658   -0.12474111085938
H         2.72617969706081   -1.71229561496774    0.09826032018408
H         2.41415854426404    0.02293376154163   -0.02933887506050
C         3.17646144042452   -0.58099265394225    2.57144702121110
H         3.04272267137387   -0.50733344330883    3.64902929554711
H         3.62822972317960    0.34081313366191    2.20437730884573
H         3.86369401814253   -1.40134083775570    2.37047845197741
C         2.97524583283307    2.57117451145906    0.89715087142807
C         0.35726511341855    3.33049069659211    0.68457398409121
C         2.11484167333593    4.74519557202272    2.24850395843174
C         2.81792680847668    2.47543674551816    3.60034608484868

