85
CSD_code = ROQHAG | q = 0 | S = 0 | Stoichiometry = C38H39MoNO4P2 | MND = 6
Mo       -4.86705388798083    7.40067131166191    6.77542290150097
P        -3.85619797751090    9.56074993768805    6.99823490951940
P        -3.86592213360221    6.81878338890507    8.87220270618526
N        -4.37351205457391   10.62957878103347   11.50230475121138
C        -3.79675603298301   10.24848081241526    8.70170193527044
H        -3.35638933379377   11.25044059889049    8.63376474387862
H        -4.83696550762829   10.34880657391810    9.02887363409426
C        -3.80356738764427    8.15581481130758   10.13189768287297
H        -4.84310265145969    8.42895283429021   10.34141920814313
H        -3.36761604756002    7.72645381623151   11.04187413792232
C        -3.02499762124407   10.31996615856701   11.05620199698763
H        -2.47182089231258    9.78433925411360   11.83655399812527
H        -2.46667733253659   11.23891631329703   10.84254898591338
C        -3.05266943783176    9.44377073436635    9.77391575780490
C        -1.62686965684581    9.13874360043095    9.33437447427609
H        -1.08490927471985   10.05661764247599    9.11122113319117
H        -1.64813874673028    8.52287935391074    8.43500376552673
H        -1.08901147867068    8.59681754156170   10.11092947622511
C        -1.37015605331320    9.16438683653438    5.78106557217327
H        -1.65524924560657    8.12129743703741    5.76452035576834
C        -0.15318441337302    9.56374064376017    5.25741996731802
H         0.51969622973405    8.83089348090925    4.83687555441440
C         0.19609411393057   10.90297226679321    5.26798095593313
H         1.14442563957734   11.21877054954052    4.85900332900414
C        -0.67831803226621   11.84171989949452    5.79377776982893
H        -0.41223751441100   12.88897932181094    5.78966983926035
C        -1.89341252288810   11.44281812981686    6.31633738848592
H        -2.58273251002034   12.18183700645753    6.70395900920612
C        -2.24457609527253   10.09520134129822    6.32328271927539
C        -4.74449045452545   10.84390200429274    4.76427668446645
H        -3.99560465100134   10.21619579187231    4.29322356716239
C        -5.53828865095695   11.67398335492296    3.99933976042268
H        -5.41219995886264   11.70431785660462    2.92714884715431
C        -6.50272461965367   12.46118963314703    4.60953469023323
H        -7.12872893410429   13.10938100086775    4.01442877348833
C        -6.66738355922375   12.40687559032428    5.98195538895990
H        -7.42430200361292   13.01246704371849    6.45953823503268
C        -5.87113438615484   11.57547124993603    6.75253204623728
H        -6.02785935967242   11.54477036218042    7.82122475077924
C        -4.89387221673774   10.79318403799105    6.15024223682866
C        -1.38271075773833    5.81607330885983    8.06778269302746
H        -1.66352849240515    6.18041886371344    7.08901509591257
C        -0.16932166842160    5.17727813149129    8.25308961045293
H         0.50510643465992    5.04800083536277    7.41934695310194
C         0.17436897625614    4.69952942341556    9.50579528303242
H         1.11990685705161    4.19926265064931    9.65416757698736
C        -0.70211061605283    4.85311607443964   10.56904622537197
H        -0.44048344132843    4.46796728834975   11.54412464055035
C        -1.91361550849747    5.49074271257361   10.38376963631329
H        -2.60466405540014    5.58708953271925   11.21125097556641
C        -2.25906288487646    5.98794026864140    9.12961589006802
C        -4.76733070360532    4.27560597817377    9.25494774652737
H        -4.01772950342574    4.06088220994098    8.50081487865641
C        -5.56669181147713    3.26524970367286    9.74942134261079
H        -5.44423357405472    2.25446954714619    9.38922478405832
C        -6.53188669229524    3.55268402401424   10.70228113084229
H        -7.16205868370978    2.76577272937987   11.08937374977525
C        -6.69185871235278    4.85213199145293   11.14887339276072
H        -7.44936252270633    5.08097108048728   11.88479095431251
C        -5.89003335028413    5.86820119585558   10.65520941340269
H        -6.04321881699294    6.87597585606004   11.01371934369696
C        -4.91182311819071    5.58625998962614    9.71001204420907
C        -4.72445744145827   12.03659033757840   11.45170971121440
H        -4.39236633052275   12.45164067533046   10.49779876857665
H        -4.23010644313429   12.60524585705735   12.26197852850349
C        -6.23792721861377   12.19137844413767   11.57873195767257
H        -6.50441346470516   13.24791750992808   11.51870857227030
H        -6.71801527698862   11.66766185421242   10.74988394671019
C        -6.71411439464571   11.59023579461885   12.89622679412253
H        -7.80181766739272   11.64206161799894   12.96626362169134
H        -6.29403982343845   12.15823952985553   13.73013206390026
C        -6.24542090787827   10.14196955235857   12.97846833368810
H        -6.72561275410003    9.56288081048075   12.18737540107178
H        -6.51747774814912    9.70297022121133   13.93979824050799
C        -4.73162094896114   10.07249711700380   12.79336045163940
H        -4.23747388810611   10.61808999629000   13.61945587872304
H        -4.40474203920997    9.03135712493937   12.83426922911926
C        -5.84313234294837    5.72245687368892    6.71096481632041
C        -3.58716450886979    6.56254024307747    5.55406368628512
C        -5.83505072017352    7.95452701511036    5.18501094132782
C        -6.28392643965466    8.16184129946438    7.88129493095451
O        -6.46063115960145    4.76181794930233    6.66290323260519
O        -2.97747484253177    6.01479754242279    4.75503265099824
O        -6.44782303054631    8.26131293360354    4.27022691928008
O        -7.15893130847499    8.58100799991923    8.48778432150384

