75
CSD_code = ROQSEV | q = 0 | S = 0 | Stoichiometry = C38H32N2NiS2 | MND = 4
Ni        3.64208170255877   -0.68880467196843   10.60005768359792
S         4.39645770991363    1.34229248147122   10.50829784741961
S         1.88152193341281    0.02819550660373    9.55662858231100
N         5.53196810019905   -1.35408392900597   10.99337293002750
N         2.60953326692844   -2.35537227541912   11.17337792790260
C         6.02286723126667   -1.85517529533796   12.12271804038627
C         7.37726789695898   -2.03748811877871   12.33393507650725
C         8.26054320320680   -1.69244806017554   11.32190385614286
C         7.75186726947629   -1.17212588523510   10.14477312282977
C         6.37900099550755   -1.01302483755868   10.01312298269812
C         5.75088763361361   -0.37405579949139    8.81628495751650
C         5.55627935332452    1.14322582824904    9.08683073127136
C         4.89721565841777    1.87719561594897    7.94320132766277
C         4.83042040107037    3.26607679050657    8.03192408039934
C         4.20987988983546    4.00995213330191    7.04957122024981
C         3.63708991341966    3.37781603193992    5.95776054650608
C         3.68909361904859    2.00002499891922    5.86625682316609
C         4.31446649213916    1.25191194760679    6.85032329622417
C         6.92106694560518    1.72772276833390    9.38488287693865
C         7.38514986835981    1.90397305905005   10.68040725706716
C         8.66884405741049    2.36576356180590   10.91144462182155
C         9.50707611845927    2.65379113281667    9.84928363501461
C         9.05182098937847    2.48168047724621    8.55254217943002
C         7.76973222933371    2.01953384156100    8.32158103974140
C         2.76684167593459   -3.61409669002967   10.77545312897909
C         1.84854389866460   -4.60853989686145   11.05822880550304
C         0.72093103848541   -4.28197366583595   11.79670756431809
C         0.55575696407618   -2.97278971479357   12.21337071073968
C         1.51983246300119   -2.03048308253927   11.88146932666876
C         1.37619232011161   -0.57822465530164   12.20676501092088
C         0.73422502684662    0.15499319381058   10.99684696107984
C         0.55750631661277    1.63835139508238   11.21769652112409
C        -0.19871943651642    2.33905060041182   10.28031685178443
C        -0.37079991708105    3.70398877449591   10.38598721256875
C         0.21697828626335    4.39922999491904   11.43032744820422
C         0.97960473219340    3.71487850813799   12.35758351892962
C         1.15039548676108    2.34411797587318   12.25494762911854
C        -0.59707859158572   -0.51222378188955   10.72158647776763
C        -0.75001001076192   -1.49137765600235    9.75082086754045
C        -1.96408270504786   -2.13390985258511    9.58423371784918
C        -3.04068126686622   -1.80819202568695   10.38950688496625
C        -2.89740583732624   -0.83111943426617   11.36077277472133
C        -1.68443544016505   -0.18975686027873   11.52777742829079
H         5.30253965181048   -2.11935536687945   12.88675029781513
H         7.73079920646131   -2.44287474714905   13.26872561276193
H         9.32463310249102   -1.82140645102373   11.44963780419979
H         8.40573814281879   -0.88427002755941    9.33640721771370
H         6.37235706242614   -0.50577331506232    7.92808288070396
H         4.74983977676526   -0.82598084770282    8.65696980363525
H         5.26132913397490    3.75596387667130    8.89337799480957
H         4.16761778737466    5.08576446627657    7.13801212383068
H         3.14729420162005    3.95656451950030    5.18830268972195
H         3.23738149752103    1.49555655658049    5.02421567085802
H         4.32825944245209    0.17786391289397    6.74912689290427
H         6.72847255358252    1.68669380321052   11.51017305314211
H         9.01384930000304    2.49975641176331   11.92643751194962
H        10.50953650451624    3.01388978065873   10.02892336787052
H         9.69870197214220    2.70725582072297    7.71700170749070
H         7.41820030323539    1.88909467878115    7.30755685734763
H         3.66271113983089   -3.83243787222451   10.20788962790890
H         2.01493151375925   -5.61564262577397   10.71008502093892
H        -0.01737271174741   -5.03148877612761   12.03830174287917
H        -0.31117272932725   -2.67634414320279   12.78291452295642
H         0.75227867121544   -0.43138208548836   13.09082761390799
H         2.38660252384572   -0.15080015979270   12.37339965907361
H        -0.64131886542031    1.79891984205808    9.45560088218273
H        -0.96082098431256    4.22840516963618    9.64846489651702
H         0.08705652546661    5.46832642246628   11.51443880143701
H         1.45211811034441    4.24811988541679   13.16992657179385
H         1.76075779400937    1.84520346996132   12.99149363507808
H         0.08831316898763   -1.74115692734518    9.11699350403645
H        -2.06689514269097   -2.89238570756783    8.82178337380371
H        -3.98867831518562   -2.30964651310810   10.26023449898267
H        -3.73400851107932   -0.56820467983139   11.99200534988448
H        -1.57837930924214    0.57427120013653   12.28535732801497

