60
CSD_code = ROQXEA | q = -1 | S = 0 | Stoichiometry = C14H34B10RhSi(1-) | MND = 10
Rh        1.45808770441267    4.91772571815579    4.02623718150797
Si       -0.64517615988414    4.16273882076454    3.46304329801102
C        -0.89644885864069    3.14050523555849    1.84688463088542
C         3.11692684784152    3.67506916738187    2.94681317263045
C         3.67150720304246    4.12225980221156    4.18167898220579
C         3.74870888761318    5.54003860189751    4.14496936870828
C         3.23449116859895    5.97506098385227    2.89280865734522
C         2.84541964140380    4.82496313148280    2.15000781428120
C         3.02280753064638    2.23991097612030    2.51280734161232
C         4.24006002203587    3.25377231803155    5.26489479180525
C         4.42911626929134    6.40688228273137    5.16139065515318
C         3.28303342202319    7.38003780592813    2.37015104753748
C         2.40043742935037    4.84272935340953    0.71577407843254
C         4.39084763036483    1.65016517453508    2.12522309913888
C         4.24943454962508    0.16954197327443    1.77678280191472
C         5.00532295542723    2.41610445412277    0.95791550045600
B        -0.47130940521007    6.18096490912582    3.65551511220792
B        -2.09322818692188    5.39076089183107    4.10499149803845
B        -1.77128570756512    3.77645413891102    5.07499289857435
B         0.06039427202417    3.51428340538301    5.25891606738507
B         0.39024983491538    6.45832894865896    5.16029254693381
B        -1.37826335831533    6.68015907753098    5.03594098503165
B        -2.16264869062545    5.29575412750648    5.85163667609941
B        -0.89025145258698    4.22650852239583    6.51066252650334
B         0.69368911132794    4.93121491127426    6.07960542654174
B        -0.66130799658515    5.98634676184144    6.50349376580197
H        -0.65507558546842    3.73482298724962    0.97774889397327
H        -0.25901082527286    2.26827785941617    1.84474195295703
H        -1.92059781935112    2.80756478053968    1.75167825880914
H        -0.34938250338601    6.85128289266611    2.68431944331568
H        -3.06457018661348    5.53204117972708    3.43836342973298
H        -2.53343917968683    2.86778688099119    5.03831232354632
H         0.53211888447299    2.42878408712274    5.34144252823744
H         2.34741706684540    2.15266382363769    1.65884627938698
H         2.60457944304919    1.63461689324493    3.32160800818383
H         1.11294720988349    7.40054802501926    5.29845142291484
H         4.01496083783161    3.66343760848315    6.24850961968357
H         5.32891414784209    3.18183391967695    5.17213140585951
H        -1.85143964955803    7.77252157807937    5.06514673591104
H         3.82488154980274    2.24948500922651    5.21560094836849
H         5.49085330939648    6.52501867336635    4.91898503854009
H        -3.19270084830194    5.44037868197623    6.43329724130244
H         3.97807137246459    7.39690651600357    5.19318454674524
H         4.35554416758099    5.96959165347684    6.15506937887911
H        -1.03193387607589    3.64918938059764    7.54247989208470
H         4.26724417947526    7.59719055570075    1.94134372220456
H         3.09637720381587    8.09833345391520    3.16640750309818
H         2.53568320958802    7.53250630155733    1.59422047926660
H         1.69193887972664    5.65047071481609    0.53797153722018
H         1.61926153953680    4.85335495689848    6.83249159022965
H         3.25375015975217    4.99131185158976    0.04656446420952
H         1.91560006044514    3.90725922379174    0.44658371487128
H        -0.63872924467761    6.60323813842957    7.52214189050767
H         5.06172683297505    1.74249459866528    2.98564929487831
H         3.57910428249848    0.04356157234466    0.92794637303296
H         5.21564677489903   -0.26184871583606    1.51706016190594
H         3.84094729312143   -0.38620545119670    2.61859638243553
H         5.99087772236254    2.02154692873822    0.71159146098549
H         4.37150256743776    2.33628164539958    0.07672240850640
H         5.10531635998910    3.46657030075948    1.21676174346605

