84
CSD_code = RORQAQ | q = 0 | S = 0 | Stoichiometry = C43H35ClN2P2Pt | MND = 4
Pt       -0.67886069848615    4.33167131725849    4.58387350238305
Cl       -1.11377494941504    6.56562795886310    5.01103499381416
P        -0.26891799393651    2.17920022953123    3.94111609673176
P        -1.86661729161173    3.97742549971402    6.51527168757906
N         0.62254361972443    4.84174961362763    3.19199514923803
N         1.79052704781759    4.27193257808151    3.50123670784676
C         0.72953512041372    5.52611284953700    2.04128476926170
C        -0.21557642795175    6.25236461596641    1.31097810252339
H        -1.22831010452996    6.35314283586942    1.67483803868964
C         0.20077491902565    6.82649065278325    0.13849468547477
H        -0.49841022654116    7.39712745756929   -0.45673579923255
C         1.52468234759381    6.69647855674145   -0.31906239144880
H         1.79782170495824    7.16954043124855   -1.25209816682764
C         2.46445805870994    5.99301574631776    0.38897851622366
H         3.48130943062290    5.89761463306017    0.03505668858948
C         2.07513259516855    5.39158053803014    1.58992505177950
C         2.67884310642449    4.58767529147725    2.57616998847654
H         3.69058483763245    4.23352293353051    2.63554934771496
C        -1.79115731351035    1.26512982792313    3.54415091118075
C        -3.00869515780746    1.92653723120911    3.64429198672492
H        -3.01802006521099    2.96099146982677    3.97906640027489
C        -4.18475662109007    1.27920767550648    3.30976818616384
H        -5.12945274241028    1.79696637524644    3.39158687637365
C        -4.14599595317203   -0.03241485014921    2.86622914325543
H        -5.06223100354815   -0.54221845904866    2.60741151464491
C        -2.93083053132862   -0.68765432832268    2.73661526409821
H        -2.90273075825849   -1.70391368580056    2.37141700532824
C        -1.75367952944615   -0.04091588185408    3.06476744582324
H        -0.80149352203648   -0.53907411416078    2.94108812769468
C         0.63928591069659    1.94466731746936    2.38545700265988
C         0.08478881054471    2.55832255659877    1.26462051031120
H        -0.84874011865260    3.09924401624463    1.36513267868028
C         0.73639154564085    2.49896922079405    0.04888577079839
H         0.31736364940600    2.99691633815705   -0.81258257269460
C         1.93744230962933    1.81519525686629   -0.05602074849170
H         2.45457953616840    1.77796104503435   -1.00321454359927
C         2.47832610053762    1.18562878479899    1.05240460907387
H         3.41357106819191    0.65155922748540    0.96705261742606
C         1.83574520490035    1.25001349015614    2.27653338662554
H         2.26989173626580    0.77779024203207    3.14627575147547
C         0.62765944483379    1.18986751863047    5.16802228063918
C         0.17484698565955   -0.00682294478216    5.70705532218882
H        -0.76836981634521   -0.42753285671464    5.39073421360032
C         0.93348613221857   -0.65606830443846    6.66630044026240
H         0.58461609036891   -1.59168722673843    7.07822310189400
C         2.12974000883438   -0.11123464813016    7.10034921224129
H         2.71507071471024   -0.62370780887497    7.84976695873542
C         2.57403681405668    1.09400038997598    6.57746881317967
H         3.50388384618126    1.52272389933581    6.92149205645152
C         1.82695898555550    1.74504878402912    5.61525552791396
H         2.15441409214684    2.68304981350049    5.18182234257739
C        -3.60235802134035    4.49119707740197    6.65027904807394
C        -4.37558991449245    4.15115006391485    7.75821349127120
H        -3.94882050891738    3.55118719031144    8.55100380895654
C        -5.69012739290962    4.57190889427667    7.83513231757282
H        -6.28714982937943    4.31250941526370    8.69754969320879
C        -6.24251294817360    5.32468524823450    6.81027897474663
H        -7.26960382835429    5.65220403317997    6.87715875261962
C        -5.47963549890561    5.65451454724453    5.70261691995067
H        -5.91021437239340    6.23895329789055    4.90319353504937
C        -4.16292849464334    5.23804579486519    5.62033272805761
H        -3.55192247200776    5.50601242556788    4.76811383832561
C        -1.91187440298623    2.33048687440115    7.30705695931983
C        -0.95660510945108    1.94355820634601    8.24022950156579
H        -0.18057266911404    2.63509245931709    8.53597295858714
C        -1.00303390386737    0.67968463842042    8.80037996053327
H        -0.26474660971974    0.39326368486097    9.53481168201063
C        -1.99135730199441   -0.21419931728811    8.42491417058861
H        -2.02771957504359   -1.19907009402855    8.86661561343157
C        -2.93484906556788    0.15829710198972    7.48089677262430
H        -3.70575275492799   -0.53652294567390    7.18026780636107
C        -2.89665024022728    1.42266483308899    6.92550707226811
H        -3.64260546689262    1.71685050994371    6.20049885089847
C        -0.95066222084748    4.95245158248077    7.74550042240699
C        -1.52739279101706    5.62376173723457    8.81363391314238
H        -2.59801686655226    5.60002231930694    8.95809358383806
C        -0.72520661269442    6.34900014737667    9.67900783197021
H        -1.17458278507170    6.88168194807245   10.50450072208648
C         0.64438133610567    6.40307988740646    9.48441073845129
H         1.26230989943774    6.97647022724072   10.15968730916445
C         1.22234701708672    5.73769781321517    8.41361554983275
H         2.28862045912761    5.79399524859034    8.25134627310180
C         0.42745904601964    5.01815651263981    7.54366308461707
H         0.86308295051010    4.51498952666905    6.67968155464729

