57
CSD_code = RORTOH | q = 0 | S = 0 | Stoichiometry = C28H22BrMnO3P2 | MND = 6
Mn        7.89618083253431    3.45205543417472    5.01530530815899
Br        5.64271478953941    3.77115237060111    4.10247299432663
C         6.38300355666425    0.76641391632045    5.04056356626866
H         5.35421711422231    0.88107561938820    4.67934358032588
H         6.58880594542846   -0.26448372159523    5.34248630616426
C         7.80246692723088    4.89936840713584    6.05677431061054
C         8.69694706019934    4.40365541910706    3.73351977604095
C         9.42829269978780    3.00844898402471    5.77858991039723
P         7.59296389051420    1.49054057100727    3.83571146780809
P         6.71033194848319    2.01917464380536    6.37450034335124
O         7.78954737143741    5.82794696295763    6.73242325674694
O         9.24610369897835    5.03132330301850    2.94233139106637
O        10.40906207728771    2.74850050260755    6.32365657559129
C         6.84727101006329    1.35111464968936    2.18659054776412
C         5.87424645036262    0.40851424136871    1.87963293815908
H         5.49102288262066   -0.25845142652610    2.63985314391354
C         5.38216873895746    0.33486135842039    0.58932484037729
H         4.61918332490106   -0.39108536408848    0.34919721164913
C         5.85850878260341    1.19047250503436   -0.39006708931888
H         5.46451990290742    1.13069178913507   -1.39352389230001
C         6.83261746327423    2.12706006277733   -0.08422855529828
H         7.19947102126922    2.79831409131740   -0.84599369612883
C         7.32884984363001    2.20749700751779    1.20242756613285
H         8.08076625932599    2.94434751987280    1.45828321988571
C         8.88917097844242    0.21837880704422    3.65517374464288
C        10.20858023535878    0.64737985931549    3.56266214278513
H        10.42887061206650    1.70633393095617    3.64035784425152
C        11.22586075422227   -0.27212128515952    3.38156849650147
H        12.25002724819178    0.06364429792880    3.31795286616203
C        10.92688656566419   -1.62096491985146    3.28553189875414
H        11.71982643072542   -2.34121684259688    3.14995785820703
C         9.61026423278453   -2.05001964033633    3.35639607932384
H         9.37877590682078   -3.10168228449364    3.27019768322733
C         8.58997932681575   -1.13515396367203    3.53418883966352
H         7.56282126159745   -1.47232618539049    3.57707271132493
C         5.10233271836124    2.30500361062176    7.15594517981059
C         4.29475016636646    1.21395122863758    7.46525964462477
H         4.62997998260272    0.21084178433671    7.23290974465772
C         3.07284832612504    1.42218450692815    8.07469377358038
H         2.44045594363969    0.57941763449789    8.31300920734671
C         2.65863451244825    2.71041611456182    8.37838080081972
H         1.70065395248448    2.86752635325710    8.85117390548892
C         3.46573661785138    3.79421680414625    8.07579241593175
H         3.14023452339790    4.79614797535931    8.31057967839435
C         4.69027862530626    3.59491068382661    7.46388067469530
H         5.32109093288545    4.43718503943902    7.21137927317348
C         7.58402790293052    1.04518625859069    7.63678805070632
C         8.61922705050503    0.19637870037475    7.25260646923457
H         8.85877917435476    0.07120097826790    6.20232596275666
C         9.35161331331706   -0.48174486272837    8.20738757458255
H        10.14977030203078   -1.14202411109716    7.90104849658844
C         9.06816689156941   -0.30475184391116    9.55245403490928
H         9.64386880573765   -0.83199949376310   10.29838154032008
C         8.05606200350711    0.55780980414897    9.94069469375328
H         7.84392873537717    0.70641509540864   10.98913405100770
C         7.31867610649620    1.23859011546290    8.98941227788845
H         6.53395626778826    1.91937700281979    9.29112736319587

