145
CSD_code = RORXED | q = 0 | S = 0 | Stoichiometry = C58H70Cl2O12P2Ru | MND = 6
Ru        3.58709493271811    5.42519437937024    6.26490924242949
Cl        2.47952689188709    3.49551638950394    7.09549119460564
Cl        4.75596355357631    7.26422136587257    5.32027202236404
P         4.52298225166982    5.91311745147202    8.27391124761793
P         1.58610618890511    6.49391346938892    6.19802963612260
O         5.73132042743132    4.86076693773661    8.53992484466634
O         1.07779923004830    6.52383281041346    4.65549917411704
O         5.51321920929762    4.12563701842785    5.94035575710613
O         3.02704489597525    4.72542537185723    4.09732579721320
O         7.57830069080328    0.56247824973378    7.06911621343092
O         6.38239573062582    1.32680860065968    5.29508184095198
O         5.02486041712597    0.75972803007283    9.55856941053735
O         5.63204795791375    2.72148014832000   10.54050329869331
O         2.85105173363664    9.07089298866260    1.70463339733531
O         0.98654045555367    8.94311056561820    3.00422528080891
O         4.05833888845492    4.74659715097580    1.27873802949935
O         2.57962507948147    5.93065255186941    0.02466468719283
C         5.53756905734712    3.48848479772006    8.24244923500670
H         4.47119585277906    3.22860883711590    8.27525686422024
C         6.28037016331809    2.66365475364753    9.29573260517615
H         7.29275707895773    3.05688483087189    9.42534067814187
C         6.23847419137711    1.16208720876668    8.97460137927042
H         7.08652605305221    0.65718064223057    9.46713168434088
C         6.25198032042211    0.75136982072958    7.51029493497026
H         5.68614343504314   -0.19061661043124    7.43038006048170
C         5.71806976978666    1.74514100451624    6.46851455690363
H         4.63794758896592    1.66731870675347    6.31582786707731
C         6.07553892838486    3.19405903528464    6.83950613546505
H         7.17231422033578    3.31428610992449    6.84066861444669
C         7.54540185945805    0.58654400101727    5.65676161399341
C         8.84924768606975    1.21694383013910    5.12386058869711
H         9.54788088959482    1.27008377723622    5.95873787786550
H         8.66332969511647    2.22125092065706    4.74907610042080
C         9.35952962240407    0.26746325744579    4.04257763974248
H         8.89151856171080    0.50613656905926    3.08673276978195
H        10.44031901119489    0.32210826920651    3.92529728649538
C         8.88727279506410   -1.10341120646151    4.52076943042726
H         9.51870584232462   -1.44763042343203    5.34062137346058
H         8.89926987065866   -1.85191405232094    3.73030005962449
C         7.47809662278167   -0.82573588654440    5.03345808131444
H         7.14003529905665   -1.55396326033208    5.76830781985358
H         6.76452977265152   -0.79219772112652    4.20993708142758
C         4.71830350956216    1.63719050245589   10.63328745295136
C         3.23363261493604    2.05222370300667   10.54707865960223
H         3.13582140020771    3.09006716578659   10.23930616940317
H         2.75951091020694    1.42401894765198    9.79373840906488
C         2.64697003812434    1.79364622490962   11.93220304615155
H         1.58032899121640    1.58219792152474   11.89040221130651
H         2.80554162928730    2.66504287299760   12.56853280171472
C         3.46442387628453    0.61477393861187   12.45393357335212
H         3.38798565440005    0.49146388777415   13.53315052520787
H         3.13805451948569   -0.30596283573895   11.96958748544953
C         4.88143341270465    0.95701814185566   12.00914467678201
H         5.53104389134246    0.08719634007266   11.93273068763179
H         5.33450290584799    1.68548459469477   12.68146923731008
C         6.27867256912558    4.33642892654641    4.76900287523170
H         6.28241583071483    3.44198309496862    4.13976089113092
H         7.30906511216001    4.60735744120839    5.03182346211077
H         5.81948400651680    5.17146186020760    4.23841218800872
C         2.00079798854265    6.82992924720600    3.62421356196910
H         2.83638221446899    7.42718622771062    4.01269150767762
C         1.26791544485680    7.64247303122429    2.55445668688273
H         0.31819230836809    7.15840071150636    2.30948991691157
C         2.15969907475595    7.90539061524168    1.33166430522525
H         1.52617993547107    8.10112118807402    0.45010726150665
C         3.16155676793991    6.82938744333665    0.94274445275948
H         4.02459784416804    7.33756011426262    0.48356850703983
C         3.66656398560962    5.87376827534654    2.03343312117394
H         4.53399280426117    6.26139964331316    2.57505422215663
C         2.55389714623708    5.52831348718428    3.03723857659474
H         1.74152520081310    4.99272785177611    2.51703754760592
C         2.05681905620066    9.79998128889500    2.62999567879159
C         2.93949008337887   10.26069540783544    3.80991478782758
H         3.97697325051604   10.06520878609559    3.54101570197361
H         2.70758735614702    9.70051581886330    4.71198476366509
C         2.68029524057940   11.75668654123595    3.96629486215033
H         1.81667603394227   11.91580631031684    4.61295660419452
H         3.53571804238552   12.27629601924409    4.39337265967244
C         2.35703385361670   12.21583484748408    2.54680515618520
H         1.85522796472684   13.18184130791230    2.51897656906645
H         3.27339277042587   12.27734976921081    1.95916431800789
C         1.47718943307729   11.09105625559095    2.01409650917193
H         1.46967583151628   11.02800791748145    0.92762367480790
H         0.45382911400692   11.19383421583822    2.37475598873315
C         3.38757864366112    4.77148465721938    0.02154353935255
C         2.50185941522217    3.52964317280271   -0.21265437780087
H         1.52521079586629    3.88601024671425   -0.54021764316745
H         2.38487508251763    2.96317480206319    0.70884914603425
C         3.19031909092394    2.72978777081660   -1.31600491432300
H         3.94648260917783    2.07352222474417   -0.88320749141365
H         2.48662084677308    2.12449636077142   -1.88464634064942
C         3.86483304310484    3.80463797064024   -2.16483122919014
H         4.63915093685463    3.40287433026461   -2.81615058186002
H         3.12001211528355    4.31480383047271   -2.77670204442291
C         4.42580626609612    4.76652343316086   -1.12287632768060
H         4.57795091793443    5.77301185566069   -1.50820342653660
H         5.36647964272127    4.39372758636157   -0.71692559399404
C         3.06510912157583    3.34139428305274    3.80498800343139
H         3.82176584747101    3.12435871613636    3.04585758140332
H         2.08266521416615    2.99950966420233    3.45543108708898
H         3.30544050221342    2.82889983897071    4.73728862339051
C         3.55478102137025    5.77890288843893    9.81474397625520
C         4.21039553680999    5.59973686312543   11.02892178614735
H         5.28937353354386    5.55394124104772   11.04911327721075
C         3.47230061610422    5.46438984240797   12.18937365543055
H         3.97787366795079    5.32398700685349   13.13377372867317
C         2.08620621031929    5.50350814186388   12.14250965775883
H         1.51369368244776    5.39208186546688   13.05203838923374
C         1.43402647635863    5.67662374432503   10.93283233052922
H         0.35507973693047    5.69484384415511   10.89112838948544
C         2.17024955422905    5.81478965300215    9.76981188225576
H         1.68545199222758    5.93288501921937    8.80908346012856
C         5.55621830476945    7.38088303847908    8.58222969784716
C         5.18899928093589    8.37020932501635    9.48591034654435
H         4.27488939435206    8.27017791091914   10.05540991319967
C         5.99749338476523    9.47973165856574    9.65906323403971
H         5.71264585513487   10.24544150631162   10.36650232429585
C         7.16626089151418    9.61107617927823    8.92787614895383
H         7.79133981081164   10.48204273046899    9.06142678300922
C         7.53157971444244    8.62770202727589    8.02306287056336
H         8.43964958714375    8.73308194655507    7.44761648290042
C         6.72832921365481    7.51669188437284    7.84838790956844
H         6.99559913017795    6.75162091863026    7.13424133828073
C         0.03473341077143    5.78356297277966    6.83473200594326
C        -0.67028336880799    6.36039494459660    7.88375971077643
H        -0.31689543626906    7.27894707587538    8.33243841963745
C        -1.82723529607080    5.76040558674628    8.34870715899003
H        -2.37696792293596    6.21372845735919    9.16124324926701
C        -2.27908562105178    4.58240184599150    7.77772646994271
H        -3.17914758927627    4.11361293795713    8.14823431081871
C        -1.57505793703602    4.00366234080675    6.73436687381468
H        -1.92356698528910    3.08131354100113    6.29318518908982
C        -0.42024645634735    4.60055683164578    6.26516262774259
H         0.14492277305632    4.14957699310507    5.46266590274940
C         1.44766718647858    8.24891574455126    6.67817225596171
C         2.41815308874616    8.82685078390995    7.48086051840116
H         3.24291230320233    8.21347049772943    7.82051848287057
C         2.33662519070489   10.16717887398485    7.81329360942848
H         3.10151488722702   10.61518689753215    8.43008024594217
C         1.28015190151082   10.92891065584919    7.34198755481154
H         1.21569137432098   11.97683992212341    7.59714368471075
C         0.30867586787455   10.35293861366880    6.53611306586486
H        -0.51123733680370   10.95115704347170    6.16590622767927
C         0.38901627291181    9.01491542577108    6.19998864243995
H        -0.35087933578292    8.55838629169685    5.55900349347071

