56
CSD_code = ROSBOQ | q = 0 | S = 0 | Stoichiometry = C24H26Cl2O2SiZr | MND = 12
Zr        1.93269843564503    1.96200422462697    3.04091952913926
Cl        2.33239961164823    4.07701342170451    2.12578685164620
Cl        0.39833045100890    2.81849461695522    4.58928950746767
Si        3.18142010445830   -0.97687603175365    2.29020465104464
O         2.93471787820127    0.12742418531584   -1.00085975059963
O         2.77204156949556   -1.54067804129641    5.61936468725645
C         1.59870335784517   -0.05049649828119    1.75095900243293
C         1.58678372944225    1.03499681684089    0.79922603604059
C         0.40352726238313    1.80786733134203    0.99385640397990
C        -0.29408721895195    1.23489221721003    2.07358237315676
C         0.43448499771649    0.12059521918343    2.55997878706096
C         3.71135662730351    0.41739151263667    3.48561861102064
C         3.09684341747313    0.70326892137480    4.76202380883288
C         3.41729347770632    2.04241247555503    5.13787802709746
C         4.17786311300989    2.59667357383321    4.09195711714538
C         4.34544031968056    1.62888596636244    3.07290911793321
C         2.47783154646301    1.21340317939587   -0.33183868217115
C         2.92624501089887    2.35763093759935   -0.94752597196518
C         3.71033237824727    1.93316263751527   -2.04609276341428
C         3.67756887605382    0.57338079685920   -2.02954513761091
C        -0.09678874301808    2.92707703959015    0.13011101502939
C        -0.10106249875586   -0.75886530976136    3.65401557595996
C         2.41922605485247   -0.23230019502865    5.63545542902225
C         1.44564854450711   -0.02901778752920    6.58441138239844
C         1.19238923064108   -1.29224514685783    7.16795769938532
C         2.02499307080164   -2.16955324066298    6.54627719454246
C         3.15386725032363    2.70253258063907    6.45814225564223
C         5.17546149536939    1.87995492046999    1.84562499968897
C         4.53585901768717   -1.32117708592130    0.98813688980191
C         2.86629525827929   -2.74330316970284    2.94740649542706
H        -1.27783969770557    1.53558622403851    2.41641476398736
H         4.64286503582780    3.57591535163968    4.10755422018312
H         2.74926767125224    3.36447944227347   -0.62530883168437
H         4.22405460952263    2.55690471065186   -2.74830703121632
H         4.12407603677926   -0.16390772525483   -2.66624019210219
H         0.30954338993417    3.88881233244035    0.45162060414163
H         0.19773228483682    2.76589916358388   -0.90637689751272
H        -1.18291965561665    2.98281195643489    0.18607956999579
H        -0.51839613606543   -0.14541068283789    4.45647780783979
H        -0.90259182397134   -1.39115617849213    3.26487502300467
H         0.66182560326386   -1.40854856639511    4.06924890468745
H         0.94826715447623    0.89478643406124    6.80105256176817
H         0.48793521670209   -1.51297644223935    7.94330004761098
H         2.17873608291115   -3.22351071246541    6.66464628615207
H         3.88840105135072    3.48764580692720    6.63150276161076
H         2.16090634908288    3.15614424143897    6.48726485703881
H         3.21770215075060    1.97312890076819    7.26501393666811
H         6.00984996655900    1.18051000653354    1.79478020907456
H         4.58884188741420    1.79297698419668    0.92876488828471
H         5.58010962622687    2.89088025600804    1.88396678314666
H         5.37891312973223   -1.80561283658312    1.47142621294969
H         4.15274192996232   -2.00442624562839    0.23831436952773
H         4.90884144868820   -0.44830893550272    0.47165199135214
H         1.95097524218711   -2.87276478588860    3.50862794368743
H         2.82993517431188   -3.42833593999770    2.10667746565881
H         3.68734264517000   -3.04957282792721    3.58564060175020

