48
CSD_code = ROSDOS | q = 0 | S = 0 | Stoichiometry = C22H19Br2HgN2PS | MND = 4
Hg        8.74887197961668    0.50552874938276    6.05286399766798
Br       10.86412718435091    0.69696965582236    7.41288944178225
Br        7.79671662130920    0.06186770049997    3.82950009289221
N         8.00358423080421    1.63605704782582    9.09829115491008
C         8.30972078472946    2.75350525572388    8.41063318550761
S         7.68405372357003    3.11229981584580    6.91614197645764
N         9.17728277637424    3.66745546062151    8.97307586976184
H         9.39547047774762    4.47614513353943    8.40029162357700
C         9.77001937236638    3.45860258004379   10.15474315793876
H        10.47415095250621    4.20216353074352   10.49858240899921
C         9.46004984193875    2.33157380682764   10.86292580301435
H         9.90792817997744    2.11726992532442   11.81616087387098
C         8.54257146838094    1.44238832293394   10.26837740992170
H         8.25920956869495    0.53000918420978   10.77626197385866
P         6.74579624447289   -0.36630131637048    7.68135725056169
C         5.40379778315258    0.81336299958088    7.95238201012194
C         5.02767393369101    1.27034390196138    9.20927482426351
H         5.49989769647391    0.86892969960379   10.09482046404089
C         4.05102367761688    2.24438842292578    9.31839308219406
H         3.75442489903143    2.59777670516925   10.29581495421762
C         3.46078143676169    2.77329690217241    8.18222859118822
H         2.70451520514182    3.53881532565505    8.27495586548897
C         3.84709319222357    2.33028485285657    6.92682715283230
H         3.39805063402182    2.75203112316573    6.04012211716818
C         4.81980621404902    1.35680575253433    6.80903224605245
H         5.14114558845015    1.01702658926587    5.83163621360804
C         5.93472976901274   -1.68635541598732    6.70711463429690
C         4.56025572795515   -1.81759285431278    6.55285376491632
H         3.88978882092626   -1.09122143484890    6.99070810424756
C         4.05049996308641   -2.87419563025968    5.81908683054649
H         2.98176010963394   -2.96825881964102    5.69239082123683
C         4.90086796964854   -3.80355954714264    5.24457961158206
H         4.49599618597181   -4.61998693031932    4.66555790298377
C         6.27177416582794   -3.68375148165232    5.40682254409816
H         6.93806216426322   -4.40460037110748    4.95730366799006
C         6.78490331221214   -2.62971439729960    6.13619051634909
H         7.85964940679831   -2.52740520553311    6.26728567381349
C         6.95215509298089   -1.32908762417416    9.20946803869383
C         8.23264270356230   -1.68812889204527    9.61477524659446
H         9.09115629393079   -1.32789343923074    9.06197695458157
C         8.40518140767586   -2.49768426273665   10.72468265188038
H         9.40080928779336   -2.77633259248762   11.03661412969064
C         7.30158370940381   -2.94983332312388   11.42862371037535
H         7.43531434727986   -3.57978762600676   12.29552175440741
C         5.84345233156585   -1.80538248773138    9.90282033540208
H         4.84791680447874   -1.55374313406848    9.56441622418594
C         6.02313726268602   -2.60500255614080   11.01579882476313
H         5.16369949459040   -2.96977910267455   11.55912431521835

