63
CSD_code = ROSDOU | q = 0 | S = 0 | Stoichiometry = C27H28MnN3O4 | MND = 6
Mn       14.49056909265610    1.59605001132734    3.62423192542476
O        15.06946037192640    2.79697759695186    2.40708596434607
O        15.45874112184370    0.05020636439598    3.62756006949113
O        15.95801139107937    2.66423798510388    4.94069502815841
H        16.83585056377004    2.38365939060616    4.64514454068208
O        13.27689580582053    0.37491251243801    2.17935324166223
H        13.92681492273906   -0.24290247022779    1.81075227419371
N        10.72009973003980    1.64035097449030    7.76212497237337
N        12.97213138387479    2.90786529171986    3.73609595847251
N        13.74425324664959    0.76211838787918    5.29755263694966
C         9.64449374215810    2.04297840629939    8.53409035397293
C         9.19157380111295    1.46989029468136    9.71076578714688
H         9.68803276831573    0.60872981898130   10.12957778527967
C         8.08666184483921    2.03845580214212   10.32408868873136
H         7.71076707976099    1.61245240819403   11.24344100380717
C         7.45314472559096    3.14507897446250    9.77960749612142
H         6.59326097083200    3.56735609663320   10.27914094459791
C         7.90973063245322    3.71923784332364    8.59836779797115
H         7.40829028019374    4.58217256074877    8.18200880906973
C         9.00451965103750    3.16311959522628    7.98221555762520
C         9.74440590689394    3.52879896139052    6.71945062670474
C         8.80353741980768    3.40121643767615    5.51748588976677
H         8.40609555670219    2.38934408277455    5.46566271483348
H         9.30773577113129    3.61739157381340    4.57990655307752
H         7.97060387873423    4.09295482203563    5.63091290569044
C        10.31929078581494    4.94197145250200    6.85789752421704
H         9.50852312644625    5.64827780136358    7.02840972920790
H        10.86542882427643    5.25389055932139    5.97210188024406
H        10.99558060849273    4.98401490437337    7.70965201749468
C        10.82321544660839    2.43322251818675    6.73767728334936
C        11.86678778001404    2.22498208111561    5.76760777877669
C        12.04429568704609    3.06147396791518    4.65758176141318
H        11.37062517259641    3.90225811915053    4.54799744186354
C        12.98449638103361    3.73925908366281    2.61428511784102
C        11.99427435174072    4.59989426899682    2.15394782343584
H        11.05414676979132    4.70543077654247    2.67508895269258
C        12.19820386233468    5.32268969422057    0.98988530018177
H        11.42325559278326    5.98520541513659    0.63498676518440
C        13.38256669197411    5.20297932283643    0.27761255402310
H        13.52333413325121    5.77432814282380   -0.62784872181535
C        14.38354202492584    4.35351657443211    0.71035241135379
H        15.30621464788756    4.24726895371159    0.15974527814441
C        14.19466860576602    3.60678571267493    1.87441193646656
C        15.54452885196216   -0.62213509393975    4.74905793529472
C        16.47369733945006   -1.62927037029584    5.01249165266437
H        17.21979400895178   -1.86773778377989    4.26903438887740
C        16.42616443242189   -2.29677070346580    6.22216379440700
H        17.14813082874210   -3.07257088422632    6.42999008928251
C        15.46459555273280   -1.97723389188849    7.16989232607505
H        15.44238308446644   -2.50682174660017    8.11022497828160
C        14.53033705384673   -0.98407495014578    6.92646446172944
H        13.79834780670773   -0.74931888389533    7.68366955577667
C        14.55731054422978   -0.29603794063386    5.71882079574049
C        12.70570666093947    1.11479531892704    6.01080400710447
H        12.42877430062513    0.53955675338912    6.88938584611337
C        15.96663676214496    2.74165877432727    6.35754264817803
H        14.97626596460593    3.07550872187596    6.66217863116901
H        16.71331258767096    3.47105355913496    6.68590631002950
H        16.17438185457943    1.77055884137941    6.81548984160112
C        12.43251283366230    0.82149957136191    1.13109421681066
H        11.67447159714717    1.45895866587082    1.58137529031655
H        11.94592949618366   -0.03385728276845    0.65330672660558
H        12.98148628613065    1.39833625333697    0.38179414372203

