84
CSD_code = ROSLUI | q = 0 | S = 0 | Stoichiometry = C42H37BrCuNP2 | MND = 4
Br       -0.33764896911746   -0.86493110570620    3.82449667273064
Cu        1.46034824483132    0.46523556798239    4.35628726138783
P         3.21127749052011    0.52799108125844    2.85840224495539
P         2.28701192370110    0.28168671866060    6.49454785988876
N         1.01998885504843    2.48927397238188    4.07064047305274
C         3.95337949135385    2.15653019242614    2.55559988781934
C         3.80464096234942    2.83151802585478    1.34719396634963
C         4.27641399402805    4.12418646484658    1.21410260186654
C         4.88227469186739    4.76254076987553    2.28416489499893
C         5.00216910477235    4.10845185881409    3.50006012910042
C         4.52771976270412    2.81923504006730    3.64006732964657
C         3.10543138009384   -0.18743652214827    1.18175229282068
C         4.22550776816265   -0.25519099627741    0.35605929977602
C         4.11759184730402   -0.81688562496109   -0.90065046204574
C         2.90036874649818   -1.32053393242409   -1.33676725156629
C         1.78973550540296   -1.26480579918123   -0.51317149399814
C         1.88876210260745   -0.69919885129376    0.74700221834862
C         4.58901169988666   -0.47092141162500    3.51075057793001
C         5.92695743871587   -0.09453516495283    3.52268706455493
C         6.87045569037820   -0.94060800974973    4.07901396875845
C         6.48970097690825   -2.15802792718185    4.62086120845728
C         5.15854877165411   -2.54323580684783    4.59744705916074
C         4.21265386385700   -1.70193905942323    4.04464655401363
C         3.62090427030335    1.31195782488105    7.18379522879348
C         3.36437690965728    2.43085516360054    7.97155967285632
C         4.39977675667093    3.26582874091595    8.35121270577984
C         5.69678013628635    3.00306262878327    7.94126442362851
C         5.95811898602877    1.89942647955637    7.14406647720126
C         4.92662613075116    1.06463973242160    6.75864365893019
C         0.92180284517190    0.58181730219083    7.66787991345492
C         1.04460615409171    0.25926290257013    9.01699231563650
C        -0.01491457473661    0.48087307342004    9.87481069468497
C        -1.20078749565235    1.01628844612311    9.39413764370702
C        -1.32762078246454    1.33242389044749    8.05255937745486
C        -0.26812916145514    1.11617754540664    7.18887144654651
C         2.74647131800448   -1.40558226953776    7.01799135051955
C         3.81683967923218   -1.72157836102883    7.84615507884851
C         4.06180758775341   -3.04190812722432    8.17921394731978
C         3.24509434041211   -4.05045197357736    7.69557459018110
C         2.17088733625756   -3.73813202567157    6.87773018037724
C         1.92214083392711   -2.42209688821904    6.53921182988990
C         0.61681525029954    2.80838242654532    2.84470608415386
C         0.80305140510340    4.06237540248651    2.30043502624022
C         1.43684899161606    5.04807482338517    3.05389226210474
C         1.83975200319336    4.70559734466090    4.34010263590307
C         1.61193882405407    3.42389677645909    4.80186112493583
C         1.64778161890152    6.42164274806807    2.50751166220661
H         3.32615135387159    2.33875794836783    0.51188232949956
H         4.17150454791396    4.63706157152188    0.26869530936151
H         5.25471393887415    5.77019802770662    2.17208311616258
H         5.46040570527362    4.60499907288447    4.34358528636510
H         4.60405638506216    2.31217331226837    4.59380920701125
H         5.17356090084163    0.13411565860894    0.70255424913568
H         4.98514054575198   -0.86652873090150   -1.54311491414970
H         2.82376594985724   -1.76138796069252   -2.31996752019587
H         0.84361538703687   -1.66431432426149   -0.84579878356477
H         1.02400154196555   -0.66994868196630    1.39493902394203
H         6.22987389698709    0.85917201589039    3.11239838190735
H         7.91022653257152   -0.64576999854119    4.09162002143171
H         7.23208961634654   -2.80717846235731    5.06120797770985
H         4.85660652367341   -3.49054220192810    5.01871605806947
H         3.16827515807620   -1.98946775600577    4.02262518869715
H         2.35368280280573    2.64088976907675    8.29671581563083
H         4.19259458681294    4.12693229337854    8.97040789224727
H         6.50206409855096    3.65778503704028    8.24021941346638
H         6.96642681969203    1.69202034706921    6.81524843763018
H         5.12623830055127    0.20711883983873    6.12933736520677
H         1.96890992865683   -0.16496398433674    9.38598878725678
H         0.08030004174573    0.23072930499955   10.92167412004862
H        -2.02817884168169    1.18097255064867   10.06867499512869
H        -2.25370184328660    1.73991825063223    7.67533623204158
H        -0.36399310198559    1.35166674790684    6.13681848829507
H         4.45890795244559   -0.94392355461534    8.23577694674182
H         4.89531677021759   -3.28250541614649    8.82397754980957
H         3.44493301394455   -5.07893299552735    7.95916540219014
H         1.52762041243114   -4.51892197869481    6.50038665562555
H         1.08375629220122   -2.17861059667562    5.89998875156728
H         0.12161996489798    2.02234761450438    2.28936076240577
H         0.46019681503567    4.27357635172399    1.29930096478478
H         2.32992781249678    5.42803553795843    4.97465710431743
H         1.91314978874097    3.12633281928038    5.79937201289586
H         0.72628055153904    6.99830510269186    2.59474671334910
H         1.91620359301273    6.37798567758758    1.45446090614209
H         2.42958555013833    6.94156970368500    3.05527606246147

