84
CSD_code = ROSMAP | q = 0 | S = 0 | Stoichiometry = C42H37CuINP2 | MND = 4
I        -0.47308743056874   -0.94006578905731    3.99166984355019
Cu        1.53541260111528    0.48269210366105    4.43421079009781
P         3.27663603771333    0.51434921521361    2.92628701462080
P         2.45076891598124    0.35646337095185    6.55234182532860
N         1.16458890391753    2.52253302586851    4.14765202170411
C         4.03086046597857    2.12290266017728    2.54582026553053
C         3.92770076248578    2.72375389613162    1.29453291594124
C         4.41559454179919    4.00258004656699    1.09925796765914
C         4.99601931060537    4.69918436491047    2.14682644545181
C         5.07530315004129    4.11770639115368    3.40206018995152
C         4.58226976286518    2.84379761168034    3.60450031733474
C         3.11451078807871   -0.23465544993247    1.26921379261850
C         4.23470645311414   -0.51390216290285    0.48962741708402
C         4.07669057061800   -1.08185039231189   -0.75927073724465
C         2.80800045100603   -1.37958210113394   -1.23513497572935
C         1.69405992772877   -1.11033887725132   -0.45929745113308
C         1.84533387867558   -0.53840845733901    0.79218501535675
C         4.66025947063240   -0.48297754110144    3.56626556084395
C         4.29232366480198   -1.73180074197459    4.06342830677499
C         5.24263840170637   -2.57788259656277    4.60032769711854
C         6.56849806021247   -2.17770566616176    4.65139418257208
C         6.94037992751851   -0.93985071968292    4.15203711134063
C         5.99299617915427   -0.08995904612316    3.60777706389571
C         3.73498950506917    1.44449514586671    7.25174863845346
C         5.03805403660468    1.30314972711133    6.77328597878997
C         6.03092453519022    2.17499767880227    7.17780114385292
C         5.73138352516651    3.21096157705581    8.04868946079509
C         4.43556798245158    3.36911957981417    8.51232656258342
C         3.43893348177959    2.49634008891869    8.11394512219423
C         1.07526608554761    0.58570771039811    7.72860466774918
C        -0.09323368458550    1.19126971059777    7.28142257586345
C        -1.16186303538386    1.35896199257203    8.14415545575669
C        -1.06636996862829    0.92410088522139    9.45477171140070
C         0.09865242664043    0.32131258784456    9.90494124267625
C         1.16772237562763    0.14819451875974    9.04742177763700
C         3.00003936620211   -1.30655139451184    7.06712770354846
C         4.15381842608544   -1.58668324652428    7.78903682565986
C         4.46212900504522   -2.89636065290440    8.11221719417676
C         3.62769919279419   -3.93075345712244    7.72349580236650
C         2.47119255643557   -3.65475008396694    7.01141724966428
C         2.15949474828257   -2.35000852839103    6.68357160594655
C         0.80039507562412    2.84821532160710    2.91168594166323
C         1.01781146541422    4.09901696831013    2.37253617815743
C         1.64299818132938    5.07668428960214    3.14369141061053
C         2.00096030639283    4.72988321271178    4.44171142143375
C         1.74344102493333    3.45080385597003    4.89640758975692
C         1.89215189999093    6.44437303307368    2.59917905034635
H         3.47169691345727    2.18564760546219    0.47493297712129
H         4.34315529175521    4.45850343072233    0.12212661505217
H         5.38037774330929    5.69579327479356    1.98667994465542
H         5.51490519452222    4.65955129611315    4.22743657133600
H         4.62528462000705    2.39592204135136    4.58947506635219
H         5.22295450848589   -0.28377365953007    0.86504036348090
H         4.94560846222952   -1.29693754617924   -1.36470498599284
H         2.69207982240602   -1.82741672293243   -2.21121035737946
H         0.70590205446780   -1.35019211242757   -0.82194425518457
H         0.97836222749088   -0.34380201993553    1.40638935939029
H         3.25143795922747   -2.02967602690310    4.02274049706829
H         4.94865001721886   -3.54181755767703    4.98770673068520
H         7.31377391087934   -2.83125437050219    5.08004835161125
H         7.97592985496641   -0.63202698112818    4.18686684400255
H         6.28894085693983    0.87770944368233    3.22509714497709
H         5.26741847114484    0.49682290187178    6.08778715742199
H         7.03844099865165    2.04948275469483    6.80750075506159
H         6.50616789298532    3.89449026412395    8.36333136587657
H         4.19875419455878    4.17753876579995    9.18915095889191
H         2.42901482801944    2.62548606701522    8.48065885762030
H        -0.16651758614081    1.51785643895952    6.25255375217489
H        -2.07156759589365    1.81978544841994    7.78904877856393
H        -1.90211707946148    1.04835427923336   10.12759637245263
H         0.17044818616045   -0.02040986650267   10.92748147203412
H         2.07514953150518   -0.32843245475425    9.39379780376213
H         4.81035416061977   -0.79015922907815    8.10970755535475
H         5.36003496075164   -3.10763158778967    8.67562106482403
H         3.87727382020559   -4.95040484389890    7.97885247184668
H         1.81272989456828   -4.45529936280049    6.70881818451959
H         1.25755877207939   -2.13223384227852    6.12840608028092
H         0.31071743247497    2.07027118061750    2.34089981957431
H         0.70703864846400    4.31414634289224    1.36184438773385
H         2.48000806585110    5.44598075264426    5.09185275731941
H         2.00967752894909    3.15305825409404    5.90407515420003
H         0.96807583697127    7.02302940600778    2.61718962305342
H         2.23063264809647    6.38775637074663    1.56690653939758
H         2.63702364376448    6.96931820036001    3.19173332987415

