75
CSD_code = ROSQOH | q = 0 | S = 0 | Stoichiometry = C31H39N3OPd | MND = 4
Pd        3.16867481994888   11.96340670957130   11.38257058717485
O         3.22841910085283   10.13578961865974   12.49855794127892
N         2.29207843186389   11.09976824407639    9.72169774962517
N         4.40653409528038   12.12559328331290   14.08544664912217
N         3.97059131369432   14.11712390708474   14.85903949555563
C         3.11303422616065   13.63458055684946   10.19641792876286
H         2.06811446424921   13.95451992921657   10.37084002773229
H         3.77605079129397   14.49369160787645   10.34050351442797
C         3.22849026716530   13.08364891834663    8.83198400944981
C         3.80030539677731   13.72354548591360    7.75030705562754
H         4.27504773296271   14.68468556579858    7.88746810526214
C         3.75616934830320   13.15647358038692    6.47147925167678
H         4.20347719422169   13.69330768290940    5.64692430865592
C         3.13367314261966   11.95690307498713    6.24094850113465
H         3.08180687212373   11.53878575150593    5.24650715860882
C         2.58136957438695   11.23395812005575    7.31688034576058
C         1.98403965587028    9.96206941447960    7.19842430751019
H         1.88192755265502    9.51230744704528    6.22079472908962
C         1.55665666128426    9.31352174102429    8.32755965303579
H         1.09381808466997    8.34023039649535    8.27049338119477
C         1.74618898830049    9.91184347257226    9.58162652558324
H         1.45558788044563    9.39771588886155   10.48988063971230
C         2.67409066754090   11.78843940231320    8.61832536823479
C         4.29331247334874    9.86379738534933   13.16869324128577
C         4.91579683983855    8.57451529895445   13.10627911240956
C         5.96784745448582    8.28726401985084   13.94213213417924
H         6.41297330527572    7.30788500485999   13.89198893092199
C         6.52065602357884    9.20501439463681   14.84259142143372
C         5.98601986995821   10.47521856297767   14.85179660478207
H         6.41975948378082   11.25228418067743   15.46126755837658
C         4.89885908418275   10.80179393468146   14.04779767129037
C         4.42964769572450    7.58985932634816   12.05009519842014
C         2.94713005607717    7.27063616335556   12.28208192599928
H         2.82276454128492    6.75239603224092   13.23134584015001
H         2.56653649343473    6.63316572694057   11.48547579455228
H         2.36946178300646    8.18850862054619   12.31412010247710
C         4.63618848870649    8.24321547874777   10.67321865594369
H         4.18664531858962    9.23651526477886   10.64029681401790
H         4.19006951756410    7.63431564720514    9.88841765385438
H         5.70073744608333    8.34806348923485   10.46936308777300
C         5.19796529443027    6.26404244146126   12.05558727961510
H         6.25740251819682    6.41856473067510   11.86235692128014
H         4.80474684329515    5.62202352827814   11.26905174398880
H         5.07926620924325    5.74333822088256   13.00357529981591
C         7.68613719682590    8.78106246012345   15.72276422902263
C         7.25569838552387    7.58725979596918   16.58700276332096
H         8.07551683268335    7.27016142267924   17.22914112986042
H         6.95861980339798    6.74268934190129   15.97204279758781
H         6.41070821156108    7.86357453820132   17.21462221587485
C         8.15156636523582    9.89922470244107   16.66029035129943
H         7.34408622742363   10.21922732967404   17.31557601230402
H         8.51661343708075   10.75524230964601   16.09711108720949
H         8.96662856882252    9.53606243550187   17.28364819222079
C         8.87306679860605    8.37664892175209   14.83724667092602
H         9.72517802843350    8.09359942952313   15.45267628598122
H         9.16602397672608    9.20865067847490   14.20016900663959
H         8.61872428834512    7.53475612710323   14.19966218291570
C         4.44880920565798   12.90756472675859   15.16423471085426
H         4.78473025504742   12.59462932089592   16.12954897007387
C         3.60831327344071   14.07810128390670   13.53651937714389
H         3.20460746618594   14.93474938195040   13.03438773426016
C         3.87357939393231   12.83462587230582   13.01924415724896
C         3.82938857076175   15.27878901400204   15.73137335944888
C         4.65020459418930   16.42852837754662   15.13788164774701
H         5.69622305619978   16.14196263869411   15.05395573859730
H         4.58050956496565   17.30306262491062   15.77876431910966
H         4.28797009816920   16.69720325616764   14.14970804200376
C         4.34053517757616   14.95637400774782   17.13491256263290
H         3.77073035960390   14.14506668639304   17.58161949423340
H         4.22849345338661   15.83397105365199   17.76608962852996
H         5.39412182334771   14.68733724166202   17.11465194164641
C         2.34464478503091   15.65095169417765   15.79687514779103
H         1.96409286447900   15.90906660739525   14.81273550271208
H         2.20368901613725   16.50345155234558   16.45550288683948
H         1.76345591836864   14.81527791442685   16.18023162727516

