140
CSD_code = ROSRUP | q = 0 | S = 0 | Stoichiometry = C66H70P2PtSi | MND = 4
Pt        7.56943737985274    4.92325745360040   -3.01367337256405
Si       17.23715551427214   11.69696791079607   -7.78752579338210
P         9.16373236641296    3.30668780042283   -3.16518457198750
C         8.91663685301309    6.29493375353874   -3.64681437923237
P         5.88584927883912    6.43368791799419   -2.84844922686704
C         9.83701501415503    6.96223474426114   -4.10222377787222
C        10.85687270786511    7.66621810301573   -4.61385388008496
C        11.81476345042588    8.25728189475998   -5.09931866709261
C        12.85255784361104    8.90626399415813   -5.62388733040713
C        13.81259047576787    9.49054848062209   -6.11306110431081
C        14.85933894597152   10.14584039032164   -6.63322985935900
C        15.81495345692443   10.74025965796583   -7.10710394339886
C         6.24675703661758    3.49886232623729   -2.40073508991940
C         5.93559812636705    3.31849943326373   -1.05315883878236
H         6.39632110460196    3.95309140732484   -0.30107274235562
C         5.04241630778578    2.34811093727210   -0.63670992284766
H         4.82570212034495    2.23485847117513    0.41840518871097
C         4.41108827188292    1.52120572993308   -1.55618874757728
C         3.44912167432618    0.46368660343515   -1.09831185184361
H         2.82860417587062    0.11910003153343   -1.92302122039725
H         2.80355291578365    0.84447141605819   -0.30810573638598
H         3.99155835186515   -0.39500392128320   -0.69918390196778
C         4.70725636816266    1.69088159408811   -2.90047705525239
H         4.22793755915066    1.05848388178902   -3.63769797761718
C         5.61045442355429    2.65645651792417   -3.31059955892677
H         5.82011614658077    2.74942647247287   -4.37268320539176
C        16.92753326549190   13.54923552673186   -7.37801837879023
H        17.73967225102920   14.15954401239240   -7.78733992926788
C        16.88540782332603   13.78763422070021   -5.87189408387998
H        16.67041645476840   14.83373605141085   -5.65372507024916
H        17.83546917929273   13.53514932562515   -5.40770198160410
H        16.10884671829517   13.17804733662959   -5.41504491294974
C        15.62159418749810   14.02828470259864   -8.00518379417468
H        15.44484248392276   15.07911143903751   -7.77532129651066
H        14.78567127372143   13.44990948538269   -7.61802895657419
H        15.63928598461394   13.91604336082543   -9.08628255821671
C        18.81376120595587   11.07895216051956   -6.87174727325898
H        18.75821536553766   11.47112726000509   -5.85058756440677
C        20.10950760886683   11.59681176387759   -7.49014266943008
H        20.96574514460372   11.31730658936872   -6.87550528861145
H        20.09651116647397   12.68135726578255   -7.57830453367576
H        20.25964802004965   11.17059795185450   -8.47994602195132
C        18.85688273676395    9.55819954760173   -6.75577351797526
H        19.70771548125131    9.24499742981049   -6.15061898618145
H        18.95115359753150    9.09510498716181   -7.73426113704983
H        17.94809723667341    9.18470479451770   -6.29061380997525
C        17.20197731210911   11.45442038594958   -9.69729161670934
H        16.16680625346153   11.63201256473648  -10.00981348097491
C        18.08364705941003   12.44524127534050  -10.45404678520179
H        17.97478483554658   12.30505289482518  -11.52997302278407
H        19.13255702617362   12.30535464935014  -10.20392357285674
H        17.81070401224500   13.47142787911971  -10.21945902025194
C        17.55115906846539   10.02694120114015  -10.10543232796398
H        17.38957240556717    9.88132765499540  -11.17360820564639
H        16.93580222779182    9.31147925864125   -9.56522289899564
H        18.59631264145160    9.81151680094193   -9.89497099952900
C        10.54890855160377    3.72009309147886   -4.26660167816251
C        10.21257040072851    4.12146752146684   -5.55827585076516
H         9.17206724180789    4.09383873625628   -5.86305020741359
C        11.18195875293525    4.58042997317169   -6.42418485980129
H        10.90876098805338    4.89984141772242   -7.41986043102050
C        12.50942631331522    4.67111671894959   -6.01602176023548
C        13.54837748534380    5.24313338864516   -6.92827192583082
H        13.56874346689746    6.32826143415019   -6.81968387309280
H        13.32450214973148    5.01474463518311   -7.96786081110280
H        14.53714185979649    4.86236534583225   -6.68386532695796
C        12.83844275391768    4.26459481345998   -4.72938219585213
H        13.86469608935008    4.33487293907385   -4.39743580492795
C        11.87252696216818    3.79475354390629   -3.85766659616278
H        12.14781598470171    3.50519415937902   -2.85344040029059
C         9.89251337318281    3.16557380958460   -1.51436392962899
C         9.59473715419594    4.16827297309441   -0.59801765998880
H         8.93833762180270    4.98283700480486   -0.90966954818546
C        10.11766334891311    4.12343217276982    0.67936088947406
H         9.88000935081579    4.90401857696188    1.38826805236340
C        10.94780648369909    3.07728114256599    1.06689709317306
C        11.53681009233953    3.03752565271502    2.44323038324125
H        11.67195157835559    2.01185868557451    2.77899354714614
H        10.90260716938783    3.56293831246840    3.15327912950167
H        12.51405638018172    3.52189671895661    2.44118144715140
C        11.23770252355991    2.07513751980975    0.14593479892494
H        11.87842694941803    1.25510350105676    0.43890886714394
C        10.71673365264593    2.11196029909293   -1.13297899317331
H        10.93989852108938    1.32153737937300   -1.83731007794406
C         8.75670673357498    1.58177285038839   -3.56682914370582
C         9.04388857672583    1.01301291618136   -4.80078934522840
H         9.59114728557381    1.57848436169991   -5.54236069413321
C         8.63828272800106   -0.28011596662282   -5.08016678969566
H         8.87012726057999   -0.71315943876628   -6.04335527226158
C         7.93433279894081   -1.02599098906391   -4.14476479887795
C         7.48159511277046   -2.42218672939351   -4.44314682508497
H         7.92972300618871   -3.12401288065218   -3.74049452292907
H         7.75809359082807   -2.71665078372799   -5.45234221518225
H         6.39975778464963   -2.49731642069509   -4.34104353567764
C         7.65230016465539   -0.44946936718092   -2.90921545066413
H         7.10423563809522   -1.01676064455102   -2.17058242440646
C         8.05322331246005    0.83728703855912   -2.62127162560150
H         7.82156703035913    1.27615681081979   -1.66074753099770
C         4.57023892497778    6.25710143586365   -1.60778705989552
C         4.55369839026544    7.02224131052955   -0.44833171361928
H         5.29379340724437    7.79771737740601   -0.30401113331779
C         3.59052796553333    6.79754897979135    0.51883710557532
H         3.58614152326097    7.40154566728066    1.41556346313845
C         2.63463368303075    5.80394846928922    0.35651266281490
C         1.59189938629185    5.54961282275222    1.40125422320849
H         1.73695365183921    6.19409986903915    2.26454677350216
H         1.63080438040210    4.51170546557688    1.72900569338392
H         0.59722598201454    5.73125043376022    0.99509226321578
C         2.66041417180852    5.03838601286279   -0.80600497498998
H         1.92633020204742    4.25758119984283   -0.94507760816559
C         3.61647035160508    5.25488650882847   -1.77524033419242
H         3.63205480739173    4.64497685129309   -2.66765318451222
C         4.99027523081701    6.34558938844606   -4.42011493810171
C         3.70358637089251    6.83827791907808   -4.60628724135647
H         3.17436990826539    7.29345857800553   -3.77957769785367
C         3.09639818866362    6.72875799703281   -5.84356248951018
H         2.09557496889456    7.11364125494077   -5.98193321853211
C         3.75097339661274    6.12637568725206   -6.91186777495373
C         3.09792104093260    6.02240266700767   -8.25554385394864
H         2.02549675895156    6.18550069006642   -8.18328432340457
H         3.27802147857334    5.04402660153584   -8.69649942553237
H         3.51309899822506    6.77262161572724   -8.92917369855959
C         5.03557283665403    5.62848428945009   -6.71512661550524
H         5.55055225799365    5.15115420794991   -7.53690309747147
C         5.64942955459508    5.73615240959243   -5.48389340771553
H         6.65501149362032    5.34482140405512   -5.32112032966222
C         6.38344652575209    8.17518877210827   -2.67867163151581
C         5.80297320281322    9.22330700708899   -3.37835897140588
H         4.99378917895549    9.03372279084661   -4.06901445826156
C         6.27311469638639   10.51267901153947   -3.20358799951560
H         5.82060234348913   11.32283075627339   -3.75818743189295
C         7.32255458774593   10.78242103379661   -2.33465345954960
C         7.85191790356183   12.17345211756321   -2.17166143297864
H         8.77693621423080   12.28414972558011   -2.73783219474054
H         8.07461618896869   12.38251419423911   -1.12734334825223
H         7.13929210876899   12.90885182697481   -2.53624640607830
C         7.89876996713326    9.72589514494221   -1.63538156143173
H         8.72178309997200    9.91960639130968   -0.96227918019644
C         7.43917774464264    8.43758991354021   -1.80905687530638
H         7.90489480648808    7.61124919432475   -1.28359495372382

