157
CSD_code = ROSSUQ | q = 0 | S = 0 | Stoichiometry = C68H84P2PtSi2 | MND = 4
Pt       -0.00121357335996    0.00200046300831   -0.00088372135702
P         2.18344966719232    0.63070344047094   -0.01774840985329
Si       -0.94144133409290    2.88473476760608    6.98444080597367
C        -0.28801693349688    0.73970075231395    1.82419628998361
C        -0.47123486123499    1.19972614626871    2.93846597260392
C        -0.63749679043525    1.70939673144417    4.17987615521613
C        -0.77125366716122    2.16573766698954    5.30138303131406
C        -2.79119143118729    2.71201708113924    7.47968617464745
H        -3.37937050451632    3.32598937388219    6.79076319869670
C        -3.26305260100822    1.27183390399749    7.31151260294756
H        -4.32531482417472    1.18220910202766    7.53973575266544
H        -2.71848853615715    0.60940958963382    7.98154695297098
H        -3.09731351379930    0.93609930289857    6.29075212710204
C        -3.07474671297184    3.19731129144402    8.89770647195353
H        -4.14155013751625    3.14405682625324    9.11820396573129
H        -2.75424348519787    4.22898609026139    9.02953567750038
H        -2.55342300666450    2.57738564452865    9.62467990154593
C        -0.43056958596184    4.73478252967724    6.88905747372984
H        -0.37701044998527    5.16005190938630    7.89673443486029
C         0.94466506350112    4.88377268794952    6.24530763023814
H         1.22482013765054    5.93514443234805    6.17108291670422
H         0.93899597563981    4.45629465218874    5.24483067650250
H         1.70705197770643    4.37275257134958    6.82826334351360
C        -1.45253540952711    5.54481226941886    6.09699459801505
H        -1.13997891480755    6.58615850229251    6.01490021214454
H        -2.42730579138332    5.52153739307127    6.57778646487035
H        -1.55703290101777    5.14021222134949    5.09246398865721
C         0.17097825839236    1.89107045697082    8.20622947723784
H        -0.42691850994200    1.06175034038189    8.59944127540694
C         1.37439350145021    1.27760867181077    7.49620542171927
H         1.95786616375756    0.66463424871082    8.18357890771591
H         2.02426718972324    2.05608558266241    7.10299558159020
H         1.05420527901084    0.65647792146433    6.66357098594903
C         0.64173696628159    2.72332881362439    9.39699258346324
H         1.21139489082679    2.10676258135651   10.09328774086408
H        -0.19878633969580    3.15356651466671    9.93667417714780
H         1.28603044653609    3.53542754777469    9.06650962803604
C         3.17408411726714   -0.78964707895814    0.50713695419107
C         4.53514417597641   -0.69545431263816    0.78341399991531
H         5.03734315982974    0.25841213170420    0.68980175080622
C         5.23253542079490   -1.81707688928586    1.18425033160719
H         6.29048373045104   -1.74479499661571    1.39458133152527
C         4.59278129164683   -3.04640498475767    1.32647329276241
C         5.37100429528185   -4.24869033896326    1.76412736840861
H         4.73912925099532   -5.13235964670063    1.79632175169921
H         5.79242398617835   -4.08556703083860    2.75546961681089
H         6.19730794005083   -4.43532525349658    1.07951185631277
C         3.23079730659925   -3.12697768284143    1.06500923080607
H         2.72009927723901   -4.07244499843543    1.18016646355132
C         2.52583942611396   -2.00932057277455    0.66013329440610
H         1.45607858467091   -2.06738749480925    0.45491078095035
C         2.79340984454029    1.94958057976944    1.07329225202552
C         2.72507508126875    1.72109928632035    2.44592917919965
H         2.36941572468295    0.76645171391575    2.80853781209078
C         3.10083252926920    2.70631919877185    3.33529886430408
H         3.03155485379798    2.52058644732616    4.39723277946328
C         3.55724617749937    3.93845531156131    2.87872080996747
C         3.93976171029237    5.02007066622125    3.84077742981792
H         4.20264052617265    4.60346037740439    4.80976077258029
H         3.09917520997679    5.69923712283120    3.98422245684598
H         4.77914516109514    5.59935395212268    3.46162475130673
C         3.63115769699142    4.15537978115382    1.50749146226666
H         3.98963953655051    5.10655572683169    1.13901292965453
C         3.24784425221472    3.17743482204889    0.60842701402836
H         3.30734384093287    3.36568302116700   -0.45498914145456
C         2.76559083080911    1.08619014264265   -1.67386272692017
C         1.97266384333402    2.01024358454695   -2.35322306256897
H         1.11135511804786    2.43496764658785   -1.84680582041469
C         2.26585688810158    2.35864214020067   -3.65308788242302
H         1.64555680474017    3.07295982512951   -4.17571982313604
C         3.34672661539780    1.77914740129988   -4.31385092529616
C         3.63593612117436    2.14499679419667   -5.73643650458014
H         4.54299622358117    1.66131690222943   -6.08857524057604
H         3.74928646738573    3.22361967285720   -5.83797277073959
H         2.80986492979081    1.83447304197352   -6.37487198710816
C         4.12424826983588    0.85194759489591   -3.63434261781695
H         4.95760439244334    0.38455819185385   -4.13953203675849
C         3.84133255133264    0.50285350068564   -2.32469393230063
H         4.44763295086882   -0.23512263085733   -1.81910747347927
P        -2.18506930297629   -0.62928696936925    0.01697464775390
Si        0.94204433384984   -2.88315601798126   -6.98473780162345
C         0.28617473098699   -0.73612154285833   -1.82574799446052
C         0.47210425827160   -1.19661542964950   -2.93936730912020
C         0.63893824489505   -1.70612606494800   -4.18077411186075
C         0.77056040565499   -2.16156951010268   -5.30293452625610
C         2.79149242254873   -2.70793212050916   -7.48028034536094
H         3.38081213291119   -3.32068056874308   -6.79123568372681
C         3.26108932423148   -1.26693234345635   -7.31277233506675
H         4.32305926852065   -1.17569894768229   -7.54165011440913
H         2.71506428768791   -0.60556503656694   -7.98265854440019
H         3.09542439428735   -0.93118233979613   -6.29200047557099
C         3.07544982211339   -3.19338338568043   -8.89816495237816
H         4.14204234681418   -3.13799757664449   -9.11910158854157
H         2.75705960667137   -4.22580527443591   -9.02933902252269
H         2.55254359611879   -2.57491892142801   -9.62524054417525
C         0.43440916206776   -4.73396740166372   -6.88613087200564
H         0.38092560970605   -5.16074627406892   -7.89316816293873
C        -0.94015955769595   -4.88439284598958   -6.24131712939007
H        -1.21876072884666   -5.93609608771494   -6.16583507625865
H        -0.93449366614346   -4.45590210987182   -5.24127765549848
H        -1.70364747616059   -4.37507124436383   -6.82427950798838
C         1.45808866864790   -5.54131323465388   -6.09357894346596
H         1.14774738363133   -6.58327355771692   -6.01069879050842
H         2.43275213648518   -5.51634254921889   -6.57446107429136
H         1.56181347653422   -5.13575554048527   -5.08935966218869
C        -0.17221096190022   -1.89398973370507   -8.20844012613222
H         0.42422072675148   -1.06436378879613   -8.60321899603565
C        -1.37682266873073   -1.28137669152616   -7.49969061979183
H        -1.96104527525274   -0.67039735864832   -8.18819042044207
H        -2.02558992881341   -2.06031061515627   -7.10555067794382
H        -1.05794542016644   -0.65846348584556   -6.66786998661613
C        -0.64131592881339   -2.72949732344602   -9.39758873741461
H        -1.21173999367002   -2.11528113926833  -10.09531113624235
H         0.20000014044335   -3.15958204919292   -9.93617377076662
H        -1.28444809889362   -3.54188382113235   -9.06555075398287
C        -3.17775190867692    0.78936005966381   -0.50850393751497
C        -4.53863494505099    0.69334184972934   -0.78496314618379
H        -5.03965824616552   -0.26111683788563   -0.69106921956277
C        -5.23736978040539    1.81395142355565   -1.18632619944431
H        -6.29516929256682    1.74024964591687   -1.39690380591257
C        -4.59917401300117    3.04406448663764   -1.32879386991866
C        -5.37883791616369    4.24527614099917   -1.76684378716718
H        -4.74800826391806    5.12968535374668   -1.79929122117289
H        -5.80007360240502    4.08138143392233   -2.75813744182251
H        -6.20535604446159    4.43114597145274   -1.08227716062356
C        -3.23733064425619    3.12645011575775   -1.06714952978065
H        -2.72782074748297    4.07253390456615   -1.18251136720577
C        -2.53102690696180    2.00980711102547   -0.66185815474335
H        -1.46134363375588    2.06929610024891   -0.45654055647459
C        -2.79319812888027   -1.94991132992472   -1.07295892576970
C        -2.72563335577108   -1.72237199329068   -2.44578652125388
H        -2.37160440462971   -0.76744459830608   -2.80926034996156
C        -3.10013923847327   -2.70885889976463   -3.33428710392560
H        -3.03161597246366   -2.52375284372944   -4.39637898293774
C        -3.55437120696069   -3.94139347123759   -2.87662318013129
C        -3.93555885622247   -5.02440189890879   -3.83763211539470
H        -4.19756870127823   -4.60918596984663   -4.80743890082582
H        -3.09465625410963   -5.70355428364055   -3.97923975215904
H        -4.77517823284946   -5.60339772207733   -3.45854947624236
C        -3.62739973964942   -4.15743359687816   -1.50520197358340
H        -3.98404702893654   -5.10897486646596   -1.13588819889120
C        -3.24544018854090   -3.17817415616213   -0.60701160346461
H        -3.30418235960297   -3.36576052324975    0.45655949933782
C        -2.76596436363923   -1.08474146892335    1.67355671991269
C        -1.97178828370810   -2.00759012437238    2.35311743180912
H        -1.11026546613143   -2.43177893604129    1.84663882982132
C        -2.26403014285285   -2.35544551082860    3.65334355134121
H        -1.64277409125248   -3.06882440771076    4.17612115275042
C        -3.34511126802665   -1.77654225819175    4.31428740359940
C        -3.63314319600526   -2.14161789700752    5.73730666166548
H        -4.54019088747925   -1.65815001094932    6.08976202979387
H        -3.74588899028496   -3.22023009267960    5.83965929397547
H        -2.80675808294366   -1.83025108064195    6.37492104029250
C        -4.12394186086155   -0.85062046570896    3.63453679505230
H        -4.95756268674613   -0.38377996741979    4.13979469265550
C        -3.84202082782598   -0.50211857978395    2.32451407587351
H        -4.44928954333620    0.23490642287744    1.81870504190660

