87
CSD_code = ROSSUP | q = 0 | S = 0 | Stoichiometry = C35H46Br2ClIrN2 | MND = 6
Ir        3.20927736678924    8.69436939564226    5.30865067354734
Br        0.47374956462344    8.82708264997756    0.17020384977527
Br        0.93417184787266    5.29246965184175    1.08220499324444
Cl        4.81909078224251    8.24323379469581    3.68398543437777
N         1.51923189985197    8.86903564477372    2.84080365600441
N         1.82060321459035    6.78402467921562    3.37862202306617
C         1.96117874550454    8.05908070725988    3.84541703859167
C         1.13932908833341    8.11368970686321    1.75983299240772
C         1.32779692253666    6.81093778064342    2.09522955173168
C         1.23748047210699   10.26461495931611    2.96578552807353
C         2.18969754846080   11.21604118405272    2.59430729548079
C         1.87629574264704   12.55769814020327    2.77812604380267
H         2.59734561262259   13.31073852857616    2.50331852348534
C         0.65749653563380   12.94226282709367    3.29729254006582
H         0.43677017443772   13.98927092728504    3.44283268753721
C        -0.29501086452258   11.98891936403364    3.59949077012574
H        -1.26123464017983   12.30146440701677    3.96349896422308
C        -0.03271973953975   10.63681728481609    3.42767889803348
C         3.50444797448768   10.84159941844050    1.95964375050370
H         3.64107884249725    9.75981360821734    2.01793725377925
C         4.67813178481131   11.48625936160921    2.69704043358775
H         4.70870842092168   12.56227013947141    2.54253606009536
H         5.61016348726903   11.05793801364674    2.33840524705440
H         4.59894226960714   11.28395226989721    3.76097176259067
C         3.50820955983062   11.25548467097535    0.48530518986348
H         2.68603320489482   10.79284471673909   -0.05530024684078
H         4.44183515768879   10.94721456638051    0.02126557019952
H         3.41309196481620   12.33471663121271    0.38653628112451
C        -1.14296182336264    9.63741733227005    3.66537804856254
H        -0.76590036966519    8.62501739225795    3.49975623251648
C        -1.68923818593353    9.70142848076119    5.09289298462460
H        -0.91221991384899    9.47328486903208    5.81793534817278
H        -2.49321575340356    8.97769945359843    5.20918771166373
H        -2.08799606374028   10.68730489817263    5.31560753651738
C        -2.27428599997934    9.87924673478625    2.65969150434019
H        -3.02904994914534    9.10182854008278    2.75539827521714
H        -1.89674395140623    9.86821205109529    1.64040004198825
H        -2.74825054527009   10.84118594806204    2.83541336300263
C         1.91695173861727    5.55903103805936    4.11313940603867
C         0.83327919840035    5.19567660823352    4.92697006015992
C         0.86308028769404    3.95662762483900    5.54939804282231
H         0.03491476183923    3.65066558491413    6.16741698209057
C         1.93178842219590    3.09853602391516    5.37668580096021
H         1.93431951661875    2.13502785938639    5.86415445594489
C         2.98877786689504    3.47265563602686    4.57574587932155
H         3.81758814963873    2.79615278602235    4.44196795656690
C         3.00338125135453    4.70061495975769    3.92266075270279
C        -0.37647674061213    6.08607583979236    5.09969333739632
H        -0.07449027178669    7.11982262363670    4.90691879885717
C        -0.94860277358416    6.02686677944832    6.51895653922716
H        -1.51474614073827    5.11234982566805    6.67579700171865
H        -1.62313807839536    6.86518136473041    6.67873761866253
H        -0.15585261913703    6.07478422853911    7.26159217335678
C        -1.46588679622190    5.69608771859130    4.09463543643530
H        -1.13131455107651    5.82543872111154    3.06901262870794
H        -2.34969639380514    6.31231551018353    4.24484941267963
H        -1.74414404324988    4.65311565805755    4.22762305541396
C         4.19542073868695    5.04680082641699    3.06659633634454
H         4.06937474935319    6.04879576067984    2.65101658046534
C         5.45697441348492    5.06851402570648    3.93419179310065
H         6.28990212658768    5.45699308570936    3.35468662822110
H         5.71093235718640    4.07263958367418    4.28957836800444
H         5.30902989658647    5.71976636349916    4.79086727847973
C         4.37174720367208    4.05590846180051    1.91361770091546
H         4.58922940973525    3.05752160949998    2.28572925718495
H         5.20127265467019    4.37404236552328    1.28673571928184
H         3.47854812831484    3.99889171777938    1.29735590978761
C         4.65250914898323    8.61794149625199    6.92598632733122
H         5.39621181700090    7.88167649735098    6.62934995217680
C         4.71521318999127    9.86237002103921    6.32839946912307
H         5.52903710382338   10.04278057332890    5.63063725150759
C         4.11513524856753   11.12456004692200    6.89812320895912
H         4.72483470906307   11.46729307283717    7.74121485594200
H         4.16311948621044   11.90024910494783    6.13076045085982
C         2.65055071308946   10.94852251035917    7.33666364244766
H         2.12928548577105   11.89932078049139    7.21029140040040
H         2.59829135366739   10.69013617971041    8.39549664396450
C         1.93447045606687    9.88390913539759    6.53071916861915
H         1.10570818432305   10.27359473676453    5.94456705402417
C         1.86305789700251    8.53821621474278    6.93315508225013
H         0.95514158191278    7.99802644584133    6.68274523326092
C         2.53617057226193    7.97841988567106    8.16634583177037
H         1.99234575685563    8.29865806355051    9.06214853431312
H         2.46216814538039    6.88952184019826    8.11571316576193
C         4.01986718407324    8.37310367865234    8.27752330029616
H         4.56169702636350    7.57215182272512    8.78389562904590
H         4.12909009158630    9.27157697199948    8.88704907496161

