69
CSD_code = ROSTAW | q = 0 | S = 0 | Stoichiometry = C29H34Br2ClIrN2 | MND = 6
Ir        2.89792401765185    3.60072212717643    3.16054632527100
Br       -0.91421918994932    2.95359551996545   -1.25208781246406
Br        2.51636101704311    2.49451216063221   -2.66388826534179
Cl        2.20405752649882    1.43543896517276    3.65473418551240
N         0.89245314082714    3.24858158341142    0.95270218730047
N         2.87892527140904    3.06609182821836    0.11991299717655
C         2.21316066780571    3.30693054946449    1.28197642007875
C         0.74369683867443    2.99429512572292   -0.38682082922424
C         1.99253251317511    2.87721626689989   -0.91096841468764
C        -0.20856072294269    3.32101471908502    1.85457077518584
C        -0.67201579700845    4.55876495865138    2.29062399034947
C        -1.72943593179383    4.58875207696020    3.19121685928320
H        -2.08386927397216    5.54741294916488    3.54222886267318
C        -2.33826534215263    3.42694912134889    3.63249684229851
C        -1.89572955901967    2.21108516454525    3.12697209856418
H        -2.38398271821665    1.30058910498651    3.44169321886710
C        -0.84212916075439    2.13043145931974    2.23282017980979
C        -0.10755161175960    5.85450212924870    1.79286435239617
H        -0.91273664906720    6.47700918282949    1.40476064913004
H         0.62283514491142    5.70210125502141    1.00326837318294
H         0.36912556204446    6.39345027118258    2.60822776350251
C        -3.46600624007092    3.46398413680063    4.61731694137669
H        -3.71134533988897    4.48606080030333    4.89384022624593
H        -3.19461512823131    2.91432944237111    5.51756457420326
H        -4.35302238387528    2.99312089552712    4.19608905059995
C        -0.39495662085176    0.80290034300292    1.71092574952832
H        -1.06170769509977    0.01850453533823    2.05726101769204
H         0.60857816745651    0.59064029073493    2.08071877157401
H        -0.37378869623453    0.77774051013716    0.62300820417110
C         4.28985989057937    3.01828179271734   -0.05425199544449
C         4.98132816665670    1.85959362719427    0.30311673290138
C         6.35547796745158    1.84385306318372    0.12423068428618
H         6.90930707216349    0.95890481408914    0.40125507663049
C         7.03567680512598    2.93072211371127   -0.40906784992530
C         6.31415882334260    4.05416009498934   -0.78235090104596
H         6.82797695452580    4.90168754712394   -1.21188506586677
C         4.93826896385752    4.11784217252806   -0.61555678189296
C         4.25461123287028    0.67006597823782    0.83751813335813
H         4.94146625064415   -0.15324924936175    1.00918162920194
H         3.48740542341054    0.34090122189492    0.13676129655428
H         3.75865013646930    0.91129881151215    1.77844654767793
C         8.52080021431795    2.87006800732171   -0.59174875886269
H         9.00544268120060    2.56200213669077    0.33287669978827
H         8.91793609686499    3.83590277038605   -0.89209168358850
H         8.77362081149796    2.13875127157784   -1.35865851941210
C         4.17730007602483    5.33796720106645   -1.04244644185511
H         4.82598854407150    6.21010785850267   -1.03623611240046
H         3.33063730885535    5.52874214769066   -0.38527340832844
H         3.80067776246604    5.20933183610543   -2.05785086240494
C         4.39968750544982    5.02698304638339    2.70565588373773
H         4.70892436516478    5.01202770818598    1.66442700912382
C         3.20525581528450    5.71130743814048    3.00344360869326
H         2.69748080576667    6.16235285032022    2.15524988774540
C         2.97897828755837    6.45386608001003    4.30660599234120
H         3.93158224831743    6.84790809115349    4.66374097506083
H         2.33026600786530    7.31352185679767    4.12332003531904
C         2.32656272783429    5.56441049122571    5.38080923363725
H         2.59890919741994    5.91925355880297    6.38078481261066
H         1.24032545612580    5.64307156564451    5.29571589930901
C         2.69423128361099    4.10618926390952    5.25098968783236
H         1.93894426802987    3.42960576463023    5.64649282799835
C         3.97226983225684    3.62345150455535    5.08090921669356
H         4.15515912211601    2.58019679375083    5.32179524876185
C         5.20483939817741    4.49413660841728    5.06502019924383
H         6.03671041698217    3.94359788328596    5.50846455768667
H         5.03341699415949    5.37441674486740    5.68613398782837
C         5.58662801881182    4.90811475306314    3.63420458837867
H         6.13225015456552    5.85826419643352    3.64731713967869
H         6.25797510548524    4.15706111003778    3.21167549469407

