102
CSD_code = ROTDIP | q = 1 | S = 0 | Stoichiometry = C44H52N5Pt(1+) | MND = 4
C         2.16190862526126    4.33169494886606    2.10452548408286
C         0.61115581038474    3.79672457638295    0.59539447633863
H         0.21969021179385    3.36149333078254   -0.30018754135881
C         0.00939846048944    4.54006698689362    1.55181463026090
H        -1.00980550970211    4.84602583580096    1.66293058341889
C         2.90321978527475    2.97083119937839    0.19780966785742
C         3.93384538063389    3.67495582439203   -0.42500594635482
C         4.82927725734919    2.97066133717958   -1.21420856420312
H         5.61550019805905    3.51083545440862   -1.71926371830388
C         4.73371322352037    1.59591371030428   -1.37293722979380
C         3.71933190646070    0.91823211044955   -0.71005704951579
H         3.64668180847213   -0.15448706149249   -0.81048471915993
C         2.79287694231928    1.58479439146862    0.07602440939100
C         4.08364457943919    5.15232104176472   -0.22468821131939
H         4.41559188903045    5.34558314372334    0.80421434960313
H         3.14032317444524    5.67215257257561   -0.38988845957019
H         4.83186248447564    5.55828444433608   -0.89879213685364
C         5.71998568941921    0.84737058587024   -2.21341778049722
H         6.22998543253378    1.51249259311025   -2.90482741176580
H         5.22636609941307    0.06179524078129   -2.77986199595616
H         6.46860786474921    0.37579641432674   -1.57697613650342
C         1.71603974720746    0.82968426046973    0.79410229637818
H         1.59500267295162    1.20587985068089    1.80874971438504
H         1.96628993444260   -0.22622424949290    0.84226953465376
H         0.76076110556984    0.92475791418030    0.27875783621463
C         0.76908039876907    5.66724694336091    3.62054629025176
C         0.43468398390482    7.01183997677997    3.45348656360273
C         0.23638127978042    7.78929708451950    4.58612497181360
H        -0.03946275885281    8.82786102883092    4.46557908232178
C         0.36953003587054    7.26172004863743    5.86238190068871
C         0.70770311494717    5.92163559888186    5.99540459415123
H         0.80912584764958    5.49680237868468    6.98223409359442
C         0.90783558384394    5.10635107330726    4.89277007480966
C         0.30703823625859    7.61778567948572    2.08707400157731
H         0.35113551192971    8.70247466112999    2.14521649493633
H        -0.64734718768838    7.35138427654717    1.63440786427298
H         1.09981792294086    7.26869154117865    1.42606804193584
C         0.15273253110579    8.10792082336758    7.07776934857093
H         1.04262881669135    8.11005405444799    7.70576661720083
H        -0.66761695542084    7.70780474468590    7.67111612762976
H        -0.08677813724924    9.13285360869377    6.80767754040161
C         1.25933037237721    3.66250618491309    5.06331633912265
H         0.64233233956638    3.03267364280241    4.42438134825111
H         1.12705106396977    3.35578699895647    6.09609016203787
H         2.31172654715393    3.49543362825106    4.79162131372391
C         5.63807762084920    4.45513514279531    4.18910534260567
C         7.16138095603398    4.20501072081945    5.79911439744539
H         7.53056386708726    3.94384316041632    6.76935443580063
C         7.79120098760245    4.71501716324742    4.71624884403653
H         8.81718110942505    4.97427191490633    4.55642574972766
C         4.84952064849139    3.55043893776521    6.34230492927214
C         4.69406191816124    2.16914127012359    6.47169861567475
C         3.75994288905810    1.69722893577732    7.37924246768260
H         3.62432215545068    0.63163888004311    7.48855151000452
C         3.00488663631097    2.56114115332612    8.16290890382950
C         3.18766110784448    3.92844510883022    8.01498057601137
H         2.61571060508310    4.61037968459824    8.62741252396036
C         4.10077310092583    4.44332505991266    7.10706492889963
C         5.52062280026334    1.23297106202620    5.64650794504588
H         5.23153265117838    0.20320135009815    5.83286726452986
H         6.57905005688666    1.34250319694681    5.88140922458135
H         5.38772096081352    1.44787668602376    4.58656051940808
C         2.02651300849883    2.01522838529232    9.15487781456222
H         2.55826986012815    1.56136193018791    9.99043904253159
H         1.40864632903807    1.24358030659338    8.69991687172234
H         1.38277002607821    2.79850824054508    9.54636182111092
C         4.26892725611369    5.92344451855091    6.93831246190140
H         3.75986854891317    6.45917246077841    7.73447306959507
H         3.83780099602534    6.23650161483548    5.98612641032971
H         5.32156857979043    6.20460937829214    6.94744166124092
C         7.09886813356324    5.40031128835752    2.44903596939383
C         7.26171671791875    6.78044576811220    2.31723861900645
C         7.54395260948063    7.29505466116143    1.06195967479398
H         7.66819616245851    8.36188331008502    0.94566736152341
C         7.69389805314044    6.46774489320028   -0.04370512136829
C         7.54365162779093    5.09897339507082    0.12348758375677
H         7.67814656034455    4.44311854402686   -0.72334265859390
C         7.23783856797799    4.54326439274373    1.35682006221727
C         7.16828520335830    7.68617163685367    3.50974201736278
H         8.11005646641910    7.68002491304106    4.05936005397159
H         6.38219766564788    7.36661068758823    4.19254202579914
H         6.97412237776271    8.70845470364651    3.19515135647968
C         8.03779330895138    7.04901005507238   -1.37912334475439
H         9.09184293636115    7.32466012544508   -1.40255751821222
H         7.45698087147200    7.94865958316045   -1.57170101895054
H         7.85798946533112    6.33371265240056   -2.17725767511444
C         7.06138212519092    3.06672339740211    1.51595550110888
H         6.01213493943617    2.84244273194437    1.72079649162147
H         7.65714160559659    2.68822843026644    2.34527766403030
H         7.35068570978082    2.54653949068649    0.60825544614739
C         3.65285499799058    7.52274331813753    3.41283025427180
C         3.50550086797679    8.93224064334474    3.58340320128139
H         2.56497649636201    9.13298969479235    4.09757810966523
H         3.49788161206004    9.42307591241202    2.61028046557276
H         4.33100198484666    9.32518224963642    4.17693899809972
N         0.97570964395624    4.85859467433237    2.47126976563255
N         1.92903931980267    3.68068862322253    0.95187044882101
N         5.84289994055088    4.05487553244545    5.45613725545573
N         6.84099597048564    4.85929320071447    3.73914348865997
N         3.76375943530048    6.38588677448745    3.28275031012051
Pt        3.90128430669858    4.44361031902235    3.14258017672073
H         3.99965631640165    2.93614770167562    3.03197885204048

