99
CSD_code = ROTYIL | q = 1 | S = 0 | Stoichiometry = C44H47NO2PRuSSe2(1+) | MND = 5
Ru       10.25611382389603    6.93515756373940   10.20856988963870
Se       10.00550612471544    8.30595782936146   12.02121015355409
Se       12.02589948251955    5.48024948062745   10.36082610092398
S         7.92214996537044    5.84480658169242    9.96516088128472
P        11.34877514928864    8.56559583872776    9.00081090737891
O         8.82316758695126    5.45838435275144   11.05466735598148
O         6.99960184172605    6.90836269905648   10.25668175344483
N         8.96782836767200    6.35687520408604    8.81276432099732
C         7.02705289200325    4.42046622825421    9.40940475268203
C         5.94183557651287    4.57618092321642    8.56337993406695
H         5.62478341921632    5.56675533568046    8.27695797825798
C         5.26706736801754    3.45338037739077    8.12466537709845
H         4.41936563414298    3.56233165504154    7.46511142703164
C         5.66074241225814    2.17878761022041    8.53156684879432
C         6.74249585636921    2.05396682864627    9.39676494437971
H         7.04849854129684    1.07664518174437    9.73545053461856
C         7.43057601922422    3.17126720773817    9.83609855970521
H         8.26218185883809    3.08916924075227   10.51734955395563
C         4.91293383544694    0.97830840825422    8.05067693344889
H         3.87694524010144    1.02457525113594    8.38274612197672
H         5.35698133666704    0.06098456637514    8.42608919280281
H         4.90599868713300    0.94646969841196    6.96249840079961
C         8.37081029122889    6.76101147738925    7.57054891042032
H         9.09997579238912    7.29352735581854    6.95875041817023
H         7.50689189940051    7.41187322314150    7.75304375759602
H         8.03276164139608    5.87394149867847    7.02100426656714
C         9.43476272169546    7.25797687945337   13.51923213725841
C        10.39534061254939    6.56877151168402   14.27579425357314
C         9.96155563194207    5.75751724816204   15.31161811713374
H        10.69319229596459    5.21572549827460   15.89353907808718
C         8.61472505315824    5.63502141280339   15.62773119074839
C         7.69403158161638    6.39342337249297   14.91462508707482
H         6.64896236124523    6.34455936734142   15.18504827381185
C         8.07868788851004    7.22380702372329   13.87544344402538
C        11.85719060533191    6.74254724484915   14.01053477801039
H        12.12308396306814    6.40606701335479   13.00258590088254
H        12.44838121005869    6.17978635531512   14.72729791376707
H        12.12010737027728    7.79884833877608   14.09014496407837
C         8.16761686447737    4.75815532472342   16.75278997573948
H         8.89587351027282    3.97673124551481   16.95389261328499
H         7.20532378027995    4.30243601657802   16.53151019475580
H         8.05287763853239    5.35368197214712   17.65877754895232
C         7.07421856995281    8.08184271125010   13.17825724645280
H         7.45377928810087    9.10241863888411   13.08744110713045
H         6.13637506000381    8.10256745450221   13.72671321190085
H         6.87292217672699    7.70701498883977   12.17403399120204
C        11.18819456205765    3.74879280511076   10.25981314759033
C        10.89880459099354    3.23203989081971    8.98983988566737
C        10.39636655738629    1.94331486646620    8.89512045041954
H        10.18167843118536    1.53821152842851    7.91654966792803
C        10.18604912042683    1.15514348127776   10.01788760256498
C        10.45907996274381    1.69990599921195   11.26637852828974
H        10.28833447069099    1.10447749956095   12.15169926104574
C        10.95850217104489    2.98432369574720   11.40940280841531
C        11.14447459357624    4.02611368408344    7.74534753755849
H        10.63473653022991    4.99210112794357    7.79178478922743
H        10.78922416131805    3.49078062888821    6.86856101128322
H        12.21279253389999    4.21261316036778    7.62653143495460
C         9.70631534758968   -0.25531570143983    9.89008610995225
H         9.05975223503559   -0.52655659069321   10.72185292026861
H        10.56140774802670   -0.93163881219221    9.90408781475900
H         9.17609082339631   -0.40735506591501    8.95307282111570
C        11.22581579330759    3.54358782543502   12.76649076727815
H        12.24802143353541    3.92131625127670   12.82290238144928
H        11.08469667594179    2.78983586947098   13.53590984304820
H        10.53769424191384    4.36767492063569   12.95912739362161
C        10.38366852892386   10.10244858951080    9.06114040728769
C        10.97147920928410   11.35790018489293    8.94031569551179
H        12.04254284015110   11.44518855650493    8.83378679431566
C        10.17857210784321   12.49179227049501    8.97122248167498
H        10.63567237138058   13.46528401474563    8.88099385003459
C         8.80573603683590   12.38214714520509    9.12373247769780
H         8.19362206400342   13.27044457319394    9.15041343583276
C         8.21733348738202   11.13348398650616    9.25170466865369
H         7.14910228462817   11.04612017189075    9.38023982927168
C         9.00216998541283    9.99597871368998    9.22309473448781
H         8.54009409455636    9.01769155620802    9.33457867504564
C        11.54800065209709    8.19254229921830    7.23791916320179
C        12.43599390048846    7.17106843214236    6.90537300172580
H        12.97731947240144    6.66811199913500    7.69897640180872
C        12.62881256830055    6.82846068440458    5.58113974431432
H        13.31888469203914    6.04009261263938    5.32197762008107
C        11.93883805691945    7.50316042031481    4.58426845565838
H        12.09086723831687    7.23702246461183    3.54961242626279
C        11.06044984411705    8.52316509324370    4.91199467220464
H        10.53180252006597    9.05294301035488    4.13409581847085
C        10.85831134817209    8.87078576802027    6.23753266436835
H        10.17867669834316    9.67166382920041    6.49596320761242
C        13.04604584071757    9.00588200032607    9.47550804686695
C        13.51353214182677    8.70020663163091   10.74941041562342
H        12.86224574718914    8.18273637013396   11.44652867776717
C        14.79884531408640    9.05304650982425   11.11930157348000
H        15.15877471568350    8.81179410872303   12.10734135103283
C        15.62211229125628    9.71256121829250   10.22115434035412
H        16.62494118741590    9.98759783740848   10.50919091239151
C        15.16215801616656   10.01414952593898    8.94871016368061
H        15.80575263633310   10.52273799699621    8.24707498656229
C        13.88000833325093    9.66131034758775    8.57029850632514
H        13.52835295942276    9.88298277466985    7.57204831740632

