53
CSD_code = ROVXEH | q = 1 | S = 0 | Stoichiometry = C20H18CuN6O4S4(1+) | MND = 3
Cu        4.52160719715979   13.83267203249221    1.95496006917180
S         3.00801937942339    8.66149995062156    5.97657993604266
S         1.14932112625576   10.54653676188498    3.54803064244738
S         0.53859347761490    9.65645391035857   -1.50035303671094
S         3.22439875093168    9.16410676662176    0.83445368566430
O         5.63010249923421   10.41444747776587    6.05868643500984
O         3.11916114630667   12.97024837541947    3.19436716528042
O         0.77338004629229   12.77987432141627   -1.86911875722418
O         4.38396727582105   12.08489815880489    0.87434776644914
N         4.68449464034307   11.94010161815278    4.58282954452033
N         5.85574868077771   13.70748487660104    3.48772804903932
N         7.02064833902586   14.34723324516281    3.69205750375080
N         2.64558482956403   12.82633300369223   -0.49313600826409
N         3.66541992464663   14.79900570122475    0.38111165790645
N         3.63281086111510   16.10605930533092    0.06785571399040
C         4.71984888034292   10.76129640899863    5.36196366656685
C         3.47374761332001   12.03925241333892    3.90395172955019
C         2.70716515329018   10.84919732223935    4.24422230261727
C         3.42292027417391   10.10327060571272    5.13295589207358
C         0.94575825452670    8.81350006320579    4.10708079838808
H        -0.09174123882751    8.56768583439215    3.88157305910274
H         1.61017974521750    8.18695984706728    3.51237876717919
C         1.22047608192517    8.63253568599327    5.58671513976268
H         0.87593882332860    7.65378150802892    5.91867865822144
H         0.73092060106603    9.40470977011941    6.17884743357761
C         5.75869502462679   12.81104590172674    4.47179467123553
C         6.87699323488039   12.88723683613861    5.31379769039300
C         7.66827968236241   13.88320901881387    4.77869692188707
C         8.97737342425241   14.41806371863642    5.21420706748047
H         9.75710483715396   14.13772418949476    4.50657996573490
H         9.23612538826671   14.01538946372184    6.18837270168654
H         8.95011667526685   15.50447105084428    5.27541116238922
C         1.56114539157571   12.21681764252133   -1.16430787843184
C         3.36306462116496   11.88028368791092    0.23232461134727
C         2.68653001536080   10.60569104047130    0.03740626953719
C         1.63744206800245   10.78905062855896   -0.81363715882338
C         1.77893832685579    8.10411532233650    0.45455930418251
H         2.08043087647221    7.10194621403019    0.75781987345532
H         0.94416806830044    8.43958680692847    1.06935873055321
C         1.40237550032045    8.11853625769532   -1.01373642519278
H         0.69548335410045    7.31843709961406   -1.23092304899176
H         2.27933475377054    8.00447941260185   -1.64990824284701
C         2.87929172974949   14.19386841766906   -0.51186458618327
C         2.34358536294856   15.13166696112986   -1.40532372365634
C         2.84620153813045   16.35070143825368   -0.99829829137715
C         2.64793704597982   17.71054635493341   -1.54676938832517
H         2.33080098055896   18.39838758054299   -0.76487900464524
H         1.89132290194517   17.68839018824989   -2.32452390535648
H         3.57528941845059   18.08907574797463   -1.97531070598578
H         7.32086505771319   15.07549793863730    3.06320190885267
H         4.14791101414303   16.77671538413204    0.61612883788712
H         7.07074249363028   12.28655647177333    6.17584796889620
H         1.67647885116832   14.93396426041043   -2.21609313981360

