59
CSD_code = ROVYAE | q = 0 | S = 0 | Stoichiometry = C17H37AuNPS2 | MND = 2
Au        3.22685231662582    2.82337630781867    0.22115335653895
S         1.61295199035773    0.50937627111853    0.64536714089130
S         4.21535123468858    0.83481950466687   -0.68143123960870
P         2.60271649566098    4.91269649321196    0.90951685788404
N         2.91029556353140   -1.45322038102529   -0.52801333377868
C         2.12160196026315    5.94586457958908   -0.62491637410955
C         0.75948167438097    5.42673673251156   -1.09518520372246
H        -0.05019974994655    5.78165623321549   -0.46530770762637
H         0.75501830168874    4.33748542478520   -1.11852669990808
H         0.56296464427005    5.78296385362327   -2.10593943556965
C         0.42667010552193    6.17774154816875    2.40571443728166
H        -0.10611160754677    6.54744018017483    1.53370386351239
H         1.11892636974436    6.94281681596801    2.74453748427918
H        -0.30938479801887    6.01941686553492    3.19379394955411
C         1.12714523320791    4.84982097888727    2.12163498315417
C         4.10279404281052    5.72446711053010    1.77391883071539
C         3.81673429364077    6.99110716395027    2.57854635212531
H         3.22099314690051    6.78285713095042    3.46292021150386
H         3.30888974791875    7.74366507476325    1.98244178101383
H         4.76367270214270    7.41357418631981    2.91483551532347
C         4.75692801470263    4.67093664832263    2.67771846917422
H         4.85479975753734    3.72262766002166    2.14742297851233
H         4.21049938423244    4.49632929576642    3.59676565980644
H         5.75675714624420    5.00490110116245    2.95213372006940
C         5.13683309573614    6.03806223741987    0.68841562954317
H         4.85801320808883    6.90430326020753    0.09658903591822
H         5.27738110671037    5.17604774197820    0.03716683984712
H         6.09552227392598    6.26128077372542    1.15550052777373
C         1.65818448720166    4.25995615093127    3.43138739433210
H         2.25573918658816    4.97236079588384    3.99222990160765
H         2.24029712357598    3.36118356421245    3.23100254286995
H         0.81873134191552    3.97334025667722    4.06356814665512
C         0.11021152268186    3.83137071793235    1.59105876971291
H         0.60670468423201    2.92410046348586    1.25078949796653
H        -0.50360011565605    4.21615431042189    0.78573034274472
H        -0.56236455375579    3.54836562203370    2.39940187019824
C         2.89551396912535   -0.15633951409630   -0.20781381710953
C         3.98910246666358   -2.04210721045030   -1.29200604596319
H         4.38101679848545   -1.28890604491570   -1.97968286911177
H         3.57573632481622   -2.86872959053674   -1.87556085354870
C         5.11435204112758   -2.53863196033125   -0.38828345216379
H         4.74100936058694   -3.26843895636293    0.32727013064880
H         5.54135729175192   -1.70110612310506    0.15698871076449
H         5.89454206762256   -3.00002410377512   -0.98738236878034
C         1.83254997091263   -2.33147889837680   -0.12187225315936
H         1.44136926939465   -1.97777487392253    0.83556576761947
H         2.24601078248506   -3.33383006689519    0.01361190239338
C         0.70612344591763   -2.35136930720496   -1.15134185137686
H         1.07603577508365   -2.67084325149985   -2.12354716718422
H         0.28387568079149   -1.35442688432502   -1.24796458467177
H        -0.07724072601635   -3.03259610916711   -0.83075146301526
C         3.10654183972099    5.62051784767875   -1.75597312917196
H         3.28119722489925    4.54536077019809   -1.81423900917381
H         4.06216522720630    6.11968626056622   -1.64792748094114
H         2.67961805271736    5.94097760963126   -2.70538849279088
C         2.04717268491376    7.45873964164422   -0.42611843377416
H         3.02693605738933    7.89278694005185   -0.24632732489773
H         1.38935376592169    7.72812366447678    0.39474384963125
H         1.65105929668431    7.91142748583954   -1.33514586042015

