98
CSD_code = ROWLAS | q = -1 | S = 0 | Stoichiometry = C38H53Cl3N3W(1-) | MND = 6
W         4.30974042428713   13.27064649452193   12.71904130858121
Cl        3.53114593652385   15.45536787768235   11.97629764723840
Cl        3.69730389320429   14.05752037107948   14.84952631918325
Cl        4.63238873898910   11.07151047537485   13.76322555384009
N         2.32403140013167   12.63042105058951   12.43889918730649
N         4.47268825227159   12.32233286019795   10.99776120740131
N         5.99698569868332   13.86234168135344   12.78069697915836
C         7.26323491014268   14.25532988866458   12.94424351026971
C         7.97839279419227   13.88526506984524   14.11612088989965
C         9.30003492289389   14.26279280411369   14.25140002330174
H         9.84342232250168   13.98518657470959   15.14407553236222
C         9.94432507478382   14.99849685532944   13.27147328376943
H        10.98172653661033   15.27933016806369   13.39421925369702
C         9.24393714036566   15.39417655996922   12.14460388044812
H         9.74371913359933   15.99677108161568   11.39925136076237
C         7.92117410836782   15.04081549189579   11.96229501692949
C         7.26454667538852   13.14450369920032   15.22060599714448
H         6.29624017691787   12.80260873674521   14.82877961813758
C         6.97875358329235   14.10220257678243   16.38073706429301
H         6.35373772834539   14.92221643138984   16.03474147235679
H         7.90482869884534   14.51098138661931   16.78403064205531
H         6.44634514371485   13.58091845858474   17.17340302047918
C         8.03727055677554   11.91763823446613   15.70332416444197
H         8.96043787049293   12.20118848734575   16.20614162536877
H         8.28151400206981   11.27255307468551   14.86300341393201
H         7.42490357013519   11.35096782094082   16.40118025346687
C         7.12429212753377   15.53737007726270   10.78218063932611
H         6.24044177668419   14.88881966967079   10.68893916587758
C         7.90882898651487   15.49146120257792    9.47219864885977
H         8.69138507400547   16.24782887928621    9.45729432771189
H         7.24220060007161   15.67766930638552    8.63309410618775
H         8.36222927711450   14.51255853769965    9.33580304943297
C         6.63749889674209   16.96056935501956   11.07565768146040
H         7.48104845565823   17.61539962789083   11.29155385497926
H         5.96951563960748   16.95024168946427   11.93341956468427
H         6.09033628795415   17.36150622502446   10.22462048518926
C         2.27110233928478   11.70340072878796   11.45031343190682
H         1.35031543625264   11.15417521103326   11.26712618541776
C         3.38330180766471   11.52220399914486   10.68924327342258
H         3.44368211364747   10.82476632299787    9.86289911219174
C         1.08365185688445   13.04452141555538   12.98903449356981
C         0.22363817045115   13.87287324185624   12.24384721092130
C        -0.94528465871201   14.33636305870259   12.82969723650418
H        -1.60374984865428   14.97928826887160   12.26318567867513
C        -1.29139195279819   13.98595570530649   14.11838871885335
H        -2.20118613914209   14.36695852864150   14.56287412029346
C        -0.48286921149184   13.11493441688477   14.82013215978661
H        -0.78019732252006   12.79814626071864   15.80863595652969
C         0.69283979791931   12.62406699291831   14.27320830076341
C         0.49799393151724   14.22594296209932   10.79943041855285
H         1.50431171918926   13.88846555511005   10.54194010457739
C         0.44681047780449   15.73161450103540   10.54313799696176
H         1.19392496882821   16.22859974475897   11.15506840328504
H        -0.53481257784197   16.14433354124738   10.76514022858331
H         0.67227859842606   15.93286686773324    9.49697756116701
C        -0.49796168953106   13.48998781397188    9.89653751638224
H        -1.51850161670650   13.79455018834172   10.12226788610617
H        -0.42482567030979   12.41347428733754   10.03922137275418
H        -0.29591496104918   13.71134007404423    8.84982545414866
C         1.46055747450930   11.55574808719025   15.01414222023691
H         2.45849349836977   11.47218218764082   14.57983127834980
C         1.63719612617320   11.85167445452935   16.50227627596615
H         0.69383179559440   11.79194601478022   17.04306378389490
H         2.06204587495391   12.84335966478967   16.63117249418113
H         2.32343719459615   11.12554287176215   16.93383814681709
C         0.75263161190099   10.21149554768498   14.81107383306825
H         0.67933518958722    9.97552628825611   13.75094174156424
H        -0.25427636830088   10.23986436541387   15.22747809152957
H         1.31370544801342    9.41771564652619   15.30001013053220
C         5.43451175406633   12.39619273440232    9.95676999116650
C         6.67876043439810   11.75454639008130   10.06534595598648
C         7.53686237985669   11.76878002296518    8.97522455458881
H         8.48760748173186   11.26280557049280    9.03863652624443
C         7.19254129226604   12.40591450483690    7.79824928579487
H         7.86772301796785   12.38935533686711    6.95378878140151
C         5.98954381143393   13.07736475232896    7.71368001178910
H         5.73197122435069   13.59297761374069    6.79988482761534
C         5.10422360374743   13.09353376409264    8.78125982753916
C         7.04648641327866   11.02530641419510   11.33443372955554
H         6.55088659047988   11.54310806496900   12.16603393417815
C         8.54696846734592   11.03214813718236   11.62125369814196
H         9.09421423902651   10.39882007096330   10.92480282232748
H         8.72276538567539   10.65167716201260   12.62476873564977
H         8.93847969745787   12.04565506689064   11.56904773500693
C         6.51071657924370    9.59144204077187   11.27969064470310
H         6.93918260153390    9.05402341883778   10.43362234401384
H         5.42790139738978    9.60002908015982   11.18213656206312
H         6.75862384066652    9.06702236713289   12.19902870683507
C         3.81340511065574   13.87327800262381    8.67578818352380
H         3.34627266574750   13.89337435988907    9.66644733927125
C         4.06295583883428   15.33126721451754    8.28890755714405
H         4.54516663509861   15.41613924754606    7.31699392404107
H         4.68349668564240   15.80725305753238    9.04144213260416
H         3.11579709845591   15.86464890031803    8.25360218446027
C         2.85380904105170   13.20928374529498    7.68587839789628
H         2.61171644498213   12.19824233814713    8.00512498659261
H         3.29889866996326   13.16065859232098    6.69329467346955
H         1.92949176764867   13.77945843112331    7.62226137924235

