78
CSD_code = ROWNOI | q = 0 | S = 0 | Stoichiometry = C39H34ClOP2Rh | MND = 6
C         4.45451685879524    5.86832338092320   11.85191995948474
C         4.47203752307734    5.82448659887355   10.45939579204313
C         3.60996631848469    6.62209781406882    9.73152593592891
C         2.72497758330188    7.46643465729130   10.38282911852433
C         2.69928753598774    7.50533000450965   11.76679661150774
C         3.55667277474084    6.70697030080573   12.50333541484001
C         5.64895349911254    5.53217540087103   14.40696102018959
C         6.62820658127167    6.41222874374581   14.84610555169656
C         6.57380449574585    6.91840324873332   16.13444790793192
C         5.54743681396060    6.55286756574019   16.98793575688777
C         4.57429513325517    5.66340311835562   16.55825876728376
C         4.63002592785520    5.14946291787982   15.27744109380289
C         7.19084171497073    5.23405659974583   11.99732133463157
C         7.47954922351423    6.55738518068630   11.69384569181146
C         8.70359874661224    6.88858047311533   11.14572538514390
C         9.63068877089349    5.89617394850046   10.88567016839373
C         9.36356248493736    4.55754798649474   11.14727814475804
C         8.13242921735699    4.23590529757491   11.71401127266683
C        10.39599461693565    3.49355046871263   10.82826889276789
C        10.79556489424145    3.61462682305028    9.34733732194052
C        11.62040809771173    3.70284568756843   11.73565096942169
C         8.02246549730435    0.62514496608132   11.71923191211224
C         8.80228999773970   -0.47714538847405   11.39894420453568
C        10.08930253059117   -0.29973193662930   10.93043073334141
C        10.58431565245637    0.97939485621281   10.75211559426259
C         9.83264806402624    2.10548785624367   11.06471093721906
C         8.55582640685991    1.91437657605723   11.58891328400959
C         5.49657936429794   -0.49281768663666   10.90698785405934
C         6.05497100256332   -0.67302934207275    9.64940963934708
C         5.32880989095732   -1.32042949790151    8.66469457295050
C         4.04890979342521   -1.77905313224536    8.92535183639332
C         3.48184343235394   -1.58256017093534   10.17518855431502
C         4.20053216067356   -0.93611909171351   11.16135123479654
C         6.51667354481996   -0.90125426224271   13.51687609271146
C         6.38138221659066   -2.25410563324249   13.22491834800918
C         6.61700647888482   -3.20096274173817   14.20615747699515
C         6.99164293922660   -2.80847869237408   15.48024027654867
C         7.12784941132070   -1.46174546085008   15.77596063098855
C         6.88985233125844   -0.51374064219580   14.79885432859184
Cl        5.32060270873428    2.58271917588335   10.30532843911563
O         7.78352601205951    2.95244986814001   12.02153769477996
P         6.28662656832565    0.41421581554247   12.26865442096165
P         5.59070651707706    4.76480532199707   12.75254501060080
Rh        5.66467189291979    2.52804690634112   12.65080664203240
H         5.14666813305331    5.14707007213853    9.95569265781584
H         3.62535471401508    6.58159764541227    8.65229009355482
H         2.05184885606327    8.09002080001843    9.81260829984426
H         2.00685770804319    8.15918363833349   12.27739755703942
H         3.52965638112005    6.74068943416350   13.58341630915739
H         7.43918226810796    6.69970618093076   14.19213950425940
H         7.34035253194149    7.60102244951918   16.47241472238346
H         5.51088159534314    6.95237167070291   17.99081535596355
H         3.77901382979827    5.36642884905552   17.22615476282519
H         3.89645410374135    4.43089478013195   14.93318427160933
H         6.73430484604996    7.31703744324459   11.88325673329362
H         8.93614667351487    7.91743114526537   10.91692191694396
H        10.58366707800178    6.17360887347582   10.46269065944152
H        11.52636405975961    2.85716203202192    9.07921993317826
H        11.22978625053945    4.58818057778589    9.13951955538367
H         9.91849642714788    3.48624454863577    8.71597698111695
H        12.38830811545320    2.96466112996387   11.51999305514594
H        12.04248976333766    4.69317603415596   11.58564340067928
H        11.33448283238326    3.60580462648976   12.78164530948126
H         8.38959799345843   -1.46837756798930   11.51986599133750
H        10.70306666561306   -1.15419171060949   10.68948765969017
H        11.58476427126460    1.10043448611232   10.36642910752440
H         7.04453967760596   -0.29639297744892    9.43301235673711
H         5.76262400870112   -1.45745238314543    7.68460178835176
H         3.48631994841015   -2.27839738149563    8.14997199660679
H         2.47667272218988   -1.92460408550963   10.37459816550759
H         3.76749810195071   -0.75480796014157   12.13814753649303
H         6.08264928598945   -2.56911408122608   12.23451826868421
H         6.50669505441228   -4.25053396961266   13.97421763700765
H         7.17255149820465   -3.55164865758187   16.24290924612795
H         7.41519653532717   -1.15229204394309   16.77025539140049
H         6.97678251562978    0.54159810186658   15.02203988774378
H         4.24192854379729    2.25152861857744   13.01698285061441
H         5.96754378278880    2.46263580021139   14.13070920673528

