62
CSD_code = ROWPEA | q = 0 | S = 0 | Stoichiometry = C28H29Cl2PRuSi | MND = 9
Ru        2.94802528169667    2.42209988823637    0.83055227389538
Cl        4.69447968499713    1.43795028626778    2.02193575127673
Cl        1.99004331390723    0.27869237386288    0.77151482374280
P         1.84995722740792    2.80216732181649    2.75671464624385
Si        4.11301434916903    3.24060627159130    4.94759208870503
C         1.59261465308694    3.72906124310505   -0.39165563403751
H         0.52084829418944    3.88417418190684   -0.33124098303739
C         2.13144487622391    2.78901245116982   -1.27687693185921
H         1.46754559309388    2.19269226986783   -1.89302281296086
C         3.53311012494571    2.64812838074212   -1.42837046414554
H         3.93111278167573    1.94830177946563   -2.15242070337609
C         4.39100637155862    3.47088819511985   -0.68582662524074
H         5.46317599690693    3.41350213577318   -0.83838110961224
C         3.87474554768664    4.40147264723693    0.24001449800042
H         4.54084366265289    5.07104508667066    0.77054774357598
C         2.47282953659238    4.48376373283521    0.44164676262521
C         1.91806571871959    5.29536737036737    1.55263543208382
C         1.76231134926981    6.67192810282170    1.48759145048114
H         2.03313787171804    7.20031127976826    0.58464945230179
C         1.26540537245541    7.36279663243834    2.58107322460537
H         1.15332865864715    8.43517390321487    2.52802912514565
C         0.91515740157660    6.68517180292311    3.73802903642312
H         0.52723613062693    7.23124852186368    4.58489254510295
C         1.06661216374940    5.31120243868338    3.81161741449689
H         0.79462607184393    4.77427147581480    4.70809116460769
C         1.57633787963627    4.61053036918539    2.72745916219810
C         0.15188890585562    2.15572747829954    2.79076377712785
C        -0.93473752938044    2.91789604600481    2.37422568345487
H        -0.79107189651990    3.94710277072604    2.07193220678043
C        -2.20267223759161    2.36476401544308    2.35507338429086
H        -3.04386558957214    2.96287851471497    2.03496516507208
C        -2.39249626908397    1.04734259924254    2.73674573711330
H        -3.38265326494380    0.61670357904276    2.71216144263606
C        -1.31114297039293    0.28067676444096    3.14095612425984
H        -1.45600222396419   -0.75037380756032    3.42638681539605
C        -0.04323646556283    0.82903795327107    3.16791931663393
H         0.80587789834924    0.22691470765466    3.45577260669197
C         2.50828795223186    2.33888725610440    4.37400713478092
H         2.74231500286599    1.27735392050328    4.26430771108302
H         1.70240886387212    2.44100662757130    5.10383001584219
C         3.58315875559735    4.30949390525263    6.44312188841570
H         3.11933257336398    3.70941398538178    7.21975916649213
H         2.88699371946595    5.09638771112316    6.16936680122955
H         4.45421406433208    4.78821678414682    6.87709137505270
C         5.37589592102701    1.92549673046690    5.48008892008541
H         6.27060496416521    2.39083900031562    5.88006696128623
H         5.66140652162120    1.31031884435490    4.63229255202358
H         4.97181625752577    1.27523598724300    6.24995791354012
C         4.84125579781744    4.40950372462475    3.61818604377057
H         5.40805406913273    3.80026687230315    2.91624991315369
H         4.01895537953920    4.87946790925490    3.08104407165679
C         5.70902775466053    5.46366701936486    4.21325926663859
C         5.19670345449424    6.72044672437029    4.51357349491420
H         4.16079886523685    6.93792454679293    4.28813598626166
C         5.99522328998989    7.69103180305641    5.09129534603945
H         5.58208476865250    8.66379236424763    5.31770398127172
C         7.32172288832349    7.41897059632095    5.37900499160828
H         7.94612968421264    8.17586557395748    5.83048975166873
C         7.84344015092456    6.17080534998113    5.08141887144534
H         8.87913800968760    5.95343141824200    5.29978619139531
C         7.04307318446597    5.20254431315023    4.50404933130179
H         7.44975383557296    4.23040026783527    4.26771872834391

