34
CSD_code = ROWSUT | q = 0 | S = 0 | Stoichiometry = C11H17ClFNOPtS | MND = 4
Pt        1.20084508262491    2.13589457450767    7.23346070984801
Cl        2.51517315414113    2.23495188658937    9.21523211284392
S         2.28008017387384    0.20454070190189    6.90280711435833
F        -0.24023822584045    1.10193264207596    2.11654833776043
O         2.04353324221938   -0.59716738447575    5.71517248538461
N         0.24450261375470    3.95385254371034    7.61552105059689
C         0.13501209299856    2.24883112887078    5.53343071148984
C        -0.80073881676332    3.29424615032455    5.51596251480763
C        -1.52980262198556    3.59516151767119    4.37708737084678
H        -2.24618412497422    4.40413176165720    4.38930920528363
C        -1.34401167001779    2.85851907906136    3.22010249093991
H        -1.89651654892237    3.07169281932437    2.31903490906298
C        -0.42507003279717    1.82698542816893    3.24352190037207
C         0.31501124304229    1.51439486916300    4.37090547586415
H         1.00434199872229    0.68462255605091    4.33316099647888
C        -0.99646884242956    4.03228926539788    6.81355901514137
H        -1.27957104465620    5.08098919377414    6.65644823159327
H        -1.79937120058252    3.54397889491783    7.37658684670727
C         1.19854855199420    4.96908636528443    7.14939282019470
H         1.37817066290018    4.84090453237766    6.08008660991351
H         2.14019293267024    4.85847600346889    7.68992307079478
H         0.80452803823196    5.97621147488302    7.32756244865513
C        -0.06160574769128    4.18984797373238    9.02900816661865
H         0.85703674563503    4.16064249641420    9.61311413239295
H        -0.72631262672264    3.40753842267735    9.39701762230873
H        -0.54167397893541    5.16543659116392    9.16067488903712
C         4.08349288423727    0.41110207195224    7.01733331355358
H         4.53747895147124   -0.56904464086040    6.92922703379732
H         4.32002566281294    0.88145844258955    7.96440270265365
H         4.39454598207863    1.04208581923339    6.19067727834017
C         2.01378956611817   -0.89655286331202    8.32412245976430
H         0.95676575398454   -1.14206745330876    8.35323570646480
H         2.30814316558451   -0.37235829825291    9.22587311133480
H         2.60084698322004   -1.79471456673433    8.17139715479584

