100
CSD_code = ROWTII | q = 1 | S = 0 | Stoichiometry = C34H61N2OsP2(1+) | MND = 8
Os       10.65045028083576    4.77961512108573    2.79903545820364
H         9.36153181268311    5.62778384290742    3.10170759552099
H        10.47994662198098    5.93182859060687    1.74918335145735
H        11.20741268843400    6.04797391734760    3.54591868171971
H        11.73894167627302    4.60601013822876    3.89233890332030
P        12.67755653576590    4.96454901482165    1.31292100930877
P         9.40549477262928    3.95708126018060    4.84246939467692
N         8.30015210570001    4.33915770422343    0.69074399984531
N         9.44020612387733    2.55324223770895    1.20183416818291
C         9.32544091340691    3.88601449157085    1.44442130100997
C         7.78001345009962    5.67321951954587    0.55310293771127
H         6.71714376438785    5.68207111304139    0.80308565266723
H         7.89747611257436    6.00931094340766   -0.47953131920417
H         8.30507362902609    6.36094280593991    1.21138345620824
C         7.76207997215766    3.29810318028955   -0.04039259021472
C         8.49075962121594    2.14307281318933    0.27763526857559
C        10.47576432624439    1.88228929871787    1.86700300323004
C        11.28453451272227    2.71277868649594    2.66273392524714
C        12.35439135068704    2.08711273029030    3.30179673436539
H        13.01647601831675    2.65372157067513    3.93926051468083
C        12.60462681595602    0.72840965725152    3.17643535328864
H        13.44912040900224    0.29262158088376    3.68857141333765
C        11.76719960064064   -0.06274985957455    2.41431343457396
H        11.94047228804930   -1.12372689534474    2.32635559441374
C        10.69579757147191    0.51551292777126    1.75970995540301
H        10.03972783400888   -0.10528511378978    1.17704944225426
C         6.71245498316444    3.27938759803033   -0.94353872324819
H         6.16231024753552    4.17745172845036   -1.17563095555873
C         6.38315601915731    2.07909888838150   -1.54744131040843
C         7.11390473420467    0.91341777890727   -1.24390735956539
C         8.16192395392290    0.94290002521381   -0.33863498534918
H         8.69561936838106    0.02848892328741   -0.14609112407745
C         5.25402844168669    2.02471609335456   -2.52554837641724
H         4.79668151518558    3.00312191578926   -2.64354743078618
H         4.49089360161584    1.32315527387012   -2.19178282480061
H         5.60624311372661    1.68728900778163   -3.49925760612438
C         6.75762218576831   -0.37916593235036   -1.90749048498454
H         7.41017824443004   -1.18196543800076   -1.57546400003326
H         6.84249110228141   -0.29031013255898   -2.98959679634443
H         5.72864110808731   -0.65470326006800   -1.68075373888015
C        14.33558137401460    4.37384370589686    1.98435762632091
H        14.18852744123421    3.28755581456383    2.02415176819068
C        14.66749640219075    4.85511004143584    3.39676253918983
H        15.38398275086529    4.17378937158253    3.85294026024156
H        13.78667271291178    4.90051899497628    4.03339874875568
H        15.12375629635050    5.84168969446300    3.37776027982489
C        15.53232965967465    4.67265083366067    1.07914328018243
H        15.83574638370248    5.71387922943909    1.16007430444258
H        15.34908148388628    4.44425626892472    0.03336916573413
H        16.37385422104508    4.06538521259206    1.40934035852093
C        13.07713033102740    6.72518137333141    0.78687168275046
H        14.08545240216602    6.65695618731423    0.36349581138314
C        13.10421584580733    7.67489948562205    1.98132154616238
H        13.56743487554177    8.61551464432219    1.68933580889174
H        13.66317116995099    7.26403450892125    2.81627348937000
H        12.09213063477668    7.88905732877001    2.31999186078884
C        12.15512064040948    7.29844521166713   -0.28476137632839
H        11.11830010280072    7.29848852281429    0.04969925935174
H        12.22858794260464    6.75978333011411   -1.22506680310645
H        12.43852995908207    8.33267896478613   -0.47250570229473
C        12.67075440131408    4.11757014611013   -0.36902365757158
H        13.38278624123960    4.70976077324729   -0.95817556805049
C        13.13837538547539    2.66340484229384   -0.35614475021453
H        12.55088925094789    2.06402985222203    0.33499104083992
H        14.18718374962586    2.56157766966742   -0.09458745651229
H        13.00774692764342    2.24742072390638   -1.35444881402872
C        11.30207216311740    4.19319530427550   -1.05157322704140
H        11.42623753259054    4.23078868082393   -2.13247515748450
H        10.73615821533905    5.06875164558678   -0.74328519838619
H        10.71792729699123    3.30534518139917   -0.82576800970512
C        10.10234444158162    2.40040147433095    5.65269758313775
H        10.42391246567502    1.80145289591729    4.79161831620298
C         9.16106217986140    1.51596528425326    6.47078009519304
H         9.73702187425492    0.66223468924564    6.82604920883392
H         8.33694092875278    1.12834871231243    5.87991459420340
H         8.75736483658641    2.01945721761033    7.34370787030110
C        11.34888784064290    2.73538374440903    6.47087871611643
H        11.08451748260187    3.13056894043318    7.44876430922734
H        11.97570846323347    3.46428984444925    5.95931858591519
H        11.93862694458863    1.83332569847773    6.62274411633237
C         9.46589437836112    5.24033859535237    6.21735236187685
H        10.51885018383589    5.21043198760761    6.52571214871724
C         8.59733344202427    4.89918003320515    7.42728736952259
H         8.78077455687777    5.63658054816606    8.20727637919434
H         8.83175971214896    3.92440790404753    7.84173693670984
H         7.53830589965622    4.93466163293924    7.18577154071488
C         9.17477161891393    6.67538815431423    5.77920806583236
H         8.15718004488806    6.79699421011434    5.42157331965186
H         9.85761721850691    7.00340625142612    5.00029887570044
H         9.30782984417962    7.33380451776708    6.63589799990897
C         7.59354694160161    3.51254937457288    4.68167307599652
H         7.31182911746449    3.16949716258517    5.68278836307505
C         7.38712020953516    2.36810995699013    3.68675471264896
H         6.48011728912235    1.81868818750587    3.93369123772252
H         8.22011249676386    1.66662586083775    3.68340402029094
H         7.26336034374900    2.75895027667982    2.68039728785990
C         6.70356950454920    4.69040238271118    4.30003654733828
H         7.09973163571542    5.21405062300699    3.43120304484983
H         6.60031938020465    5.40045025250419    5.11551059317617
H         5.70811550262986    4.32404629405166    4.05298869045773

