92
CSD_code = ROWTUU | q = 0 | S = 0 | Stoichiometry = C45H40N2O2OsP2 | MND = 6
Os        6.63979807921985    4.50796255190320   19.94949859422292
P         5.52530280445492    3.15410794735667   21.51209182042145
P         5.59579237623502    3.18872817293081   18.43421654254409
N         4.01101849876196    6.26357954229375   19.61841973596761
N         5.75781738521577    6.83020505825585   18.43894050604823
O         8.28476893508544    3.17527682907387   20.34289191230200
O         7.46156950287166    5.75847978489143   21.45344351068152
C         5.32009199790899    5.95989420784320   19.40318560183546
C         3.12538899693820    5.63899001378177   20.55543209818005
H         3.58902552735436    4.72598718064327   20.92485125507395
H         2.18136624414741    5.39102342099084   20.06710109772016
H         2.92153797679222    6.30179724565115   21.40050777855888
C         3.60919790262590    7.27247515254760   18.77736606812289
C         4.72853451937447    7.62880073609163   17.99936043426921
C         7.09844139579530    6.69965613849192   18.02562927411584
C         7.72917385217294    5.56322764670284   18.56112399755516
C         9.04517962932550    5.34258865244184   18.17530348373911
H         9.57265666172399    4.47276886012939   18.54477442051261
C         9.71140607483213    6.21185678555737   17.32425187834373
H        10.73638706032602    6.01236047032619   17.04178900335181
C         9.07451390476865    7.34382414796945   16.85007470300346
H         9.59885082177307    8.03714983872405   16.20786213852798
C         7.75890175504736    7.59702262590921   17.20309677390507
H         7.28320277301965    8.49884470929517   16.85385828092175
C         2.37418420536189    7.87560110621606   18.61058463534498
H         1.52754228213235    7.60325912741672   19.22128955217608
C         2.26296140925801    8.83698259778351   17.62226870441294
H         1.31506561752644    9.32732075233078   17.45989939231134
C         3.35199472234481    9.17166141444384   16.82638128329997
H         3.22855038708295    9.91215971304497   16.05041852726522
C         4.59142605925969    8.58057786859684   16.99784467078365
H         5.40481255448453    8.85025028527063   16.34722106987242
C         9.16802913787383    3.32169019819393   21.22507326724147
C        10.24453375091883    2.25192252600938   21.29200657231438
H        10.00149165217213    1.43883219473357   20.61165459358186
H        10.32383164076516    1.86077302876517   22.30369764006786
H        11.20582844203567    2.67922156430128   21.01087444824250
C         9.26846276622073    4.36742595776193   22.14852518315131
H        10.08031445141674    4.31997016170626   22.85936819228977
C         8.44563503391184    5.49520455453974   22.19526777293889
C         8.76931542438352    6.52839644045690   23.26136393268652
H         9.79105167977110    6.88164887885364   23.14200192398781
H         8.67253924794782    6.08553929218514   24.25119282996447
H         8.08649715412763    7.37013224010408   23.17443207951403
C         4.26522378002265    2.18673437702746   20.59682596843483
H         3.54808161293652    1.59929192424271   21.16037942433318
C         4.30391134587904    2.19108267682145   19.26769665842021
H         3.63325760679552    1.59439647317828   18.65698470236233
C         6.49369868379208    1.74740436424892   22.16769629272024
C         6.82416987071811    0.67995705956090   21.33855992211953
H         6.43029278204262    0.64196723561348   20.33082058276282
C         7.66443150513003   -0.31845366393553   21.79379818134015
H         7.91264327105953   -1.14750155034727   21.14624843685601
C         8.19464998513664   -0.25352859428444   23.07231779265587
H         8.85240220870477   -1.03417167617850   23.42622174448843
C         7.89305808143780    0.82304724761925   23.89053360060464
H         8.31960930276267    0.88632446415517   24.88166354661368
C         7.05360942882060    1.82456100773113   23.43937361746368
H         6.83137382602615    2.67318367831837   24.07336958968929
C         4.62336127180434    3.60765791278960   23.03925099953363
C         4.72217373442961    4.92938774816881   23.46014437683377
H         5.30143852546100    5.62357099292789   22.86409757913311
C         4.09761414142490    5.33844569714462   24.62491267516680
H         4.18116918203414    6.36445800356960   24.95329045440211
C         3.36790309034085    4.42855388823796   25.37196250260062
H         2.87774560886246    4.74453922612172   26.28131446506066
C         3.27361658243936    3.10805425999465   24.96040330717100
H         2.71295732056938    2.39791345088509   25.55134799938095
C         3.90332383229892    2.69403351341837   23.80132261665708
H         3.85136642159514    1.65734081181050   23.49696706705790
C         6.34841234275945    1.86162012328684   17.42345340699623
C         5.64285617698329    1.23439979316425   16.40093796809803
H         4.63501544909036    1.55244742759584   16.16864491426699
C         6.23954076583297    0.21832012231619   15.67795737183038
H         5.69441714711675   -0.26854097133815   14.88180492375089
C         7.53640943887147   -0.17534465646621   15.97049934439454
H         7.99786314689270   -0.96950183585203   15.40142564372688
C         8.24081346025620    0.45043460839693   16.98592486257557
H         9.25322047229729    0.14429492352267   17.20744619477714
C         7.64940394175731    1.46881432291675   17.71280214525118
H         8.17754986253249    1.97529200179191   18.50776407218742
C         4.64041299227127    4.06971609477841   17.15461036065113
C         3.27896197553348    4.32539349997450   17.26316663625974
H         2.71360072847989    3.87769449265857   18.06923069225184
C         2.65254809475457    5.15096245981957   16.34587068261398
H         1.59391101704669    5.34945993015113   16.43356379769832
C         3.38159853680285    5.73428239595433   15.32395796405654
H         2.89146642889824    6.38890281431214   14.61892010132606
C         4.74089712207984    5.48442801134847   15.21200586900284
H         5.31093068600482    5.94316171102944   14.41755692046527
C         5.36889374978254    4.65878150602149   16.12370336611954
H         6.43230116665683    4.46735307326311   16.06091147647669

