79
CSD_code = ROWWIL | q = 1 | S = 0 | Stoichiometry = C32H40IrN4O2(1+) | MND = 6
Ir       -0.37494208901053    1.68447284699954    3.94133558215733
O        -4.31748922806479   -0.88079220839707    4.01339658602345
O        -3.87975996477083    5.36030533903526    1.11685490853867
N        -1.28034262074668    1.09194498497584    1.09248805924013
N        -1.65132223253368   -0.63971249421542    2.30172474042328
N        -2.73983648290371    1.49973213492430    5.85977357957499
N        -3.16014751140451    2.98667456390884    4.37231441609442
C         0.58799735029427    2.47061875863540    5.74794600953172
H        -0.11318438533612    2.48406332168108    6.57794397956136
C         0.45101769467153    3.47804412567672    4.80437371277936
H        -0.34189255156773    4.20798540308534    4.96703846124915
C         1.55758428266694    4.00048839951470    3.92254540387051
H         1.10932767555783    4.62725869881147    3.14768949324260
H         2.20732107991597    4.65054139624303    4.51672919329924
C         2.39630612016002    2.89551957511046    3.25408376266150
H         3.24763868614087    2.63281787497147    3.88182435086754
H         2.79926297096887    3.28502531610692    2.31783955950397
C         1.58921119003671    1.65169462073462    2.96441435407929
H         1.47649839874231    1.43007684836999    1.90677693512276
C         1.47638661593899    0.58303022059341    3.83889451978942
H         1.28635578872878   -0.39770113940936    3.40415844735578
C         2.10024689214697    0.50799852844838    5.20969128415671
H         3.16985267574698    0.30236072433211    5.10253299408815
H         1.66556204490886   -0.34550368868878    5.73540182310089
C         1.89532291223565    1.77807354326444    6.05522221059146
H         1.91204453673665    1.49917508580828    7.10996771021971
H         2.71710092170760    2.47637731952084    5.89783616969088
C        -1.19607715665469    0.63064374096197    2.36060159382539
C        -1.78760960264456    0.12979822346218    0.26357901468575
H        -1.94416659651291    0.29740100122926   -0.78133990369820
C        -2.01606653378887   -0.96449523955347    1.02462174428894
H        -2.40242503722074   -1.92759650194846    0.76460741366516
C        -0.90746512363402    2.40204461021607    0.63450878167227
H        -0.45382447133896    2.94940544986506    1.45817886334809
H        -1.78651458017269    2.94162070928915    0.27930435433237
H        -0.19004794152971    2.32238832295449   -0.18352923996737
C        -1.69975449384907   -1.55730125965055    3.42188853100872
H        -1.82703039830741   -0.95494195084656    4.32305049307188
H        -0.74864281701977   -2.09724418077202    3.48474940478359
C        -2.82431614009716   -2.54685670213236    3.28095067880897
C        -2.57351194621614   -3.83699977649309    2.84094025940298
H        -1.55621595668512   -4.12884635235216    2.62412884525814
C        -3.60063042832158   -4.75038549439615    2.67967666123777
H        -3.38883809312819   -5.75083691903957    2.33851328314409
C        -4.89795144621403   -4.36492747889791    2.95957010921060
H        -5.71038234109611   -5.06386430425795    2.83610271122272
C        -5.17124958329505   -3.08229169324388    3.40410736899229
H        -6.19229420783084   -2.81196914262446    3.61775044509376
C        -4.14189668152908   -2.16346770110091    3.57007740141807
C        -5.62671394423430   -0.47220849785073    4.34639736900308
H        -6.28929194719040   -0.50407098792690    3.47729314017632
H        -5.54044592383145    0.55761067423513    4.68948116103054
H        -6.04495408714816   -1.08708863511554    5.14838345877150
C        -2.24003778551007    2.06582510093977    4.73765417280333
C        -3.94813713050528    2.05520749100556    6.18379920741684
H        -4.50627793233125    1.75094158017597    7.04496234758905
C        -4.21485061919228    2.99003851423439    5.24315311447348
H        -5.05155453655413    3.64718312393223    5.12781466704936
C        -2.13534781747081    0.44317504442649    6.62475642176612
H        -1.13591406339205    0.24976247280398    6.23859101488417
H        -2.73681086771570   -0.46531599375522    6.55308826830558
H        -2.06620986918916    0.73147280230223    7.67452205894828
C        -3.10878138429130    3.80214528731520    3.19049013970208
H        -2.05956081798178    3.92909788778168    2.90706464171287
H        -3.52008527544210    4.79092721173088    3.41229281506085
C        -3.87651190900536    3.20582738364694    2.03256279811688
C        -4.19873340531291    1.86270896048175    1.96946645772893
H        -3.90942338139484    1.20563537976686    2.77441785031395
C        -4.88199333321722    1.34787107143502    0.87934538059358
H        -5.12173932087969    0.29674151829485    0.84124402443109
C        -5.24970661234234    2.18701293691085   -0.15445784348065
H        -5.78420734560416    1.79784827005176   -1.00703928031003
C        -4.93917630310125    3.53652759497986   -0.10884293545641
H        -5.23853133017773    4.17335262990619   -0.92507961719410
C        -4.24992132154415    4.05701849619734    0.97978751558893
C        -4.28166143677615    6.28729060387295    0.13141700943649
H        -3.83941821826295    6.05465864902575   -0.84152455855867
H        -3.91261890293360    7.25289824965264    0.47177082957057
H        -5.37039237134073    6.32745771883606    0.03935130890498

