93
CSD_code = ROWYEJ | q = 0 | S = 0 | Stoichiometry = C31H52B2O5OsP2 | MND = 6
Os        2.52751957821350   11.22011459132604    2.51787013654232
H         4.61663688165058   11.25042495843141    2.88872933505628
H         3.06679123034503   11.33948065398409    4.28527929639276
P         2.59287092556600    8.79941050590703    2.63079763238231
P         2.57204453465838   13.63502091457651    2.30594144666485
O         4.96156148300058   12.55985673095357    4.70450851607880
O         4.97831290675535   10.21897265909505    4.87432842076389
O        -0.57391412300149   11.17458688510650    2.06558787124306
O         0.01562504842999   11.32313334222937    4.25527253879526
O         1.72296476968062   11.02275652369596   -0.37309343993209
B         4.38756067404908   11.33759425747312    4.12957115693020
B         0.50715143358473   11.23848590523029    2.94616041213116
C         5.74086823355833   12.16739291582791    5.73276807248843
C         6.46491744217964   12.95108951679150    6.60276963997005
H         6.45674210450315   14.02710795794934    6.52051527373089
C         7.20456153786207   12.30260226158804    7.58774775817127
H         7.78078519731092   12.89306146664674    8.28494879123895
C         7.21445994164022   10.92404584871977    7.68811910747311
H         7.79836229849067   10.44938950737681    8.46304980513592
C         6.48539010682604   10.12878106753326    6.80835288590243
H         6.49311732604238    9.05225788810504    6.88345856768137
C         5.75090060082926   10.76713505598300    5.83444955293450
C        -1.34018226574387   11.31016811377036    4.16929633950152
C        -2.28707334741846   11.37135873350921    5.17016462190479
H        -2.00159095720246   11.44147141816743    6.20736205088008
C        -3.61823856089799   11.33818383617461    4.77774885507129
H        -4.38906744392434   11.38386001696600    5.53210900082274
C        -3.97904920122672   11.24775422199076    3.44111429645299
H        -5.02563909389904   11.22473494804029    3.17743933674277
C        -3.02662939603427   11.18604887796718    2.43301705758238
H        -3.30271561883609   11.11580472331041    1.39356133501749
C        -1.70205522714338   11.21855424193540    2.81813219145913
C         4.02790008981979    8.03384264345775    1.68874082812461
H         3.79322920898313    6.97496382743635    1.54128455168547
C         4.13670822680377    8.70999463802714    0.32401075300218
H         4.43689596043084    9.75008210342290    0.44704737684303
H         3.18808635997579    8.69458605045754   -0.20795384483349
H         4.88488092702737    8.20892235207350   -0.28933662764953
C         5.36169216868231    8.13212491517712    2.42354469569833
H         6.16687041464725    7.82892025945845    1.75446775383741
H         5.39275883195193    7.48632313557542    3.29698612571970
H         5.55725149665605    9.14878358464324    2.75031568845201
C         1.11092373447058    8.01535886724007    1.75460113586302
H         0.87884016851950    8.75526882047379    0.97827677603153
C        -0.10079161659298    7.94078895504183    2.68235382351152
H        -1.01266728546952    7.85288499122176    2.09388887351460
H        -0.17819202091446    8.83625895844453    3.29005011989081
H        -0.04030591906598    7.07462765633793    3.33670028204300
C         1.31962105868616    6.66066804184324    1.07941538040586
H         1.65894090897338    5.90442965926982    1.78205397490552
H         2.02428928341866    6.72028775351686    0.25530230113678
H         0.36601658477454    6.32906580967770    0.67006259112132
C         2.78629547529126    7.99815210005685    4.31357526264447
H         3.77513112618950    8.36604508626200    4.61290649523501
C         1.79016052517456    8.53112769592424    5.34344960789013
H         0.82990650198823    8.02683102915556    5.27613320275178
H         1.62894629184081    9.59936797475199    5.21159531619643
H         2.18325525161870    8.36989354816780    6.34646761335342
C         2.80350180432303    6.47125182153578    4.32640506885158
H         3.08766436253319    6.12725596270090    5.32058557218192
H         3.51764513311075    6.06322835669232    3.61575756607003
H         1.81974579948139    6.06402726302575    4.10617736917400
C         1.08387138115240   14.28071926653464    1.33290136645938
H         0.86008234748450   13.44213545180900    0.66159999364703
C        -0.12969821852833   14.46581267752743    2.24254987387495
H        -0.07807932473207   15.41130379468702    2.77678283201935
H        -0.19945046458299   13.65773827443354    2.96318656465855
H        -1.04158472827116   14.46666063693458    1.64758376301670
C         1.28028913846040   15.53591227923678    0.48405040183053
H         0.32407924456261   15.80077640124597    0.03416525238415
H         1.98674644561516   15.37465808297796   -0.32475790491479
H         1.61107316886078   16.38197755044014    1.08025054313985
C         4.00044335212301   14.28083925601542    1.26892807875024
H         3.75653259038890   15.30887121642582    0.98305609815862
C         4.11496012532298   13.43077092347261    0.00570044525046
H         4.86040197334651   13.85139036511726   -0.66842166609832
H         3.16686615837131   13.36907461967018   -0.52380149452055
H         4.42206682332954   12.41819249877612    0.26535612848754
C         5.33539978789296   14.29221650415689    2.00785366491992
H         5.54331081478237   13.32715942162287    2.45951795975411
H         5.35867616345284   15.04305974445610    2.79306866239903
H         6.13661787882843   14.51854622761703    1.30444865953355
C         2.75479907183340   14.65649543420264    3.86616737677722
H         3.74713574570190   14.34280732009778    4.21156418512044
C         2.75612632219065   16.17150470909350    3.67522312371147
H         1.76838816746026   16.53589975884794    3.40378647964403
H         3.46648242128614   16.48820776199130    2.91585529939628
H         3.03652454839416   16.64773093370161    4.61441753650258
C         1.76353685852812   14.25454212127073    4.95836837368622
H         2.15418433100498   14.55140430714522    5.93091973675644
H         1.61369461144463   13.17658279261745    4.96942685107503
H         0.79802704115584   14.73522941211307    4.82545084073635
C         2.06820634996525   11.09917584832238    0.73505747698104

