95
CSD_code = ROWZUA | q = 0 | S = 0 | Stoichiometry = C31H55N4Si4Y | MND = 4
Y        17.17842770518414    4.83599246891549    8.10239327352047
Si       16.08103377105443    1.68075692702555    7.50958236110785
Si       14.21750026685138    3.40107540348759    9.19437935645752
Si       19.21156126471385    6.05487293423065    5.61811621095055
Si       16.39395438171451    5.40022718275929    4.78339465587455
N        15.68011399433048    3.14666748021481    8.32275055112235
N        17.62724614360298    5.50218847078387    5.99140122821598
N        17.46569786879720    6.26351913113494    9.67615866155714
N        18.73487940933946    3.36484869505100    9.73901849731136
C        17.88013515584457    1.88102338325999    6.86352495480104
H        18.60877931460294    1.70994491425114    7.65327104150127
H        18.04279193864886    2.87980741056523    6.44541374896055
H        18.09032030218809    1.16463364669402    6.07464236072883
C        14.97373268787218    1.23602942574068    6.01161067623163
H        14.83631366193863    2.08216993872419    5.34741003701464
H        13.99206776683594    0.91479442707699    6.34087059574603
H        15.40355958645826    0.42574502497278    5.43025393589829
C        16.05672646798874    0.13699951531942    8.64958946163606
H        15.08078911001968    0.02142218266334    9.10824480541379
H        16.79079137876501    0.20254532039806    9.44692151416816
H        16.26284527779647   -0.76815253873581    8.08801967731017
C        14.29323103476955    2.76404111064180   11.01193385087531
H        14.99401568757825    3.32518566590604   11.62412647171753
H        14.58814215766093    1.72007521066610   11.04607540487360
H        13.31895130662098    2.84088293000793   11.48449054062701
C        12.66726520664538    2.57135880345389    8.44699661924204
H        12.75098513466775    1.49127883315996    8.49463234882331
H        12.53283916090789    2.84590786318659    7.40670292914766
H        11.76780439698922    2.85602035641743    8.98337848779620
C        13.88915795015632    5.29318400065676    9.26491234561351
H        13.10656662465567    5.58218248212375    8.57067535067763
H        14.78832280498950    5.86211779486479    9.00254185101297
H        13.57417578951005    5.60892704148283   10.25465682544183
C        19.97269097771981    5.34841428215515    4.01309270498277
H        19.44768766071858    5.72887386720696    3.14439325317664
H        19.90967039606393    4.26578630676760    3.98642642845074
H        21.01788347386120    5.62233878041572    3.91139478170225
C        19.38930866161610    7.96384919816927    5.50872080633716
H        19.08814191564827    8.45587471222978    6.42896352182922
H        18.77188948934567    8.36174598972960    4.71121374902130
H        20.41526036010277    8.25379349323774    5.30324436723291
C        20.32324310221396    5.46724528871098    7.06941846927187
H        20.40173549311418    4.38130748520878    7.06987456742815
H        19.91160717014755    5.79831182398684    8.02569364360011
H        21.32958206324470    5.86713326835572    6.98833344161594
C        16.61458408489093    3.91353202679102    3.59373678484170
H        16.79979667477216    2.99246688581638    4.13601834067768
H        17.45145107355257    4.07387453490255    2.92296128207629
H        15.73015484769423    3.76452952557618    2.98192911059307
C        14.71647563233427    5.20171387855571    5.68099906037986
H        14.46090547192155    6.08528605477845    6.25951487144831
H        14.73264515288567    4.34817998310658    6.35593109775615
H        13.91382327339737    5.03871360526216    4.96763189699531
C        16.28263051982579    6.95597782701021    3.67076999602366
H        17.17680371335962    7.05610586173377    3.06538363458505
H        16.17939792361821    7.86548526947515    4.25326769965976
H        15.43488448252949    6.89813630907124    2.99572747760508
C        17.64534227996038    7.69896323264349    9.44397621809010
H        18.41703679839707    7.84636669176457    8.67533286290420
H        17.97813105066222    8.19865186987859   10.36531521212038
C        16.35042239147679    8.32041314775080    8.97175090212822
C        15.49789816287641    8.97613339526250    9.85313865831325
H        15.79878317091900    9.12543933690460   10.88120870415646
C        14.27163476420485    9.45542305291041    9.42444781819374
H        13.61762605672614    9.95887887347295   10.12184012253456
C        13.88911680931496    9.30023436478450    8.10383550287780
H        12.93682499823008    9.68280026590299    7.76703270573232
C        14.73844016783221    8.66277439041293    7.21347496230325
H        14.45190821313288    8.56035556468415    6.17666638895705
C        15.95693896660602    8.16514334262890    7.64382551687555
H        16.62503381504990    7.67910087037093    6.93929713827573
C        17.01905725540864    6.00327259757429   11.03550891295141
H        16.35385874055047    5.12792970020806   11.06071136284097
H        16.42939226619839    6.85012152569163   11.42702449636741
C        18.15081386584530    5.74621654162366   12.01651739120064
C        19.46907427857669    6.04645734438261   11.70397366495742
H        19.69689831757451    6.45749630032033   10.73183670077433
C        20.48164566792316    5.81969641210730   12.62043314931266
H        21.50185178320114    6.06858459260102   12.36509273857022
C        20.19183506798955    5.27841887531052   13.86006251136446
H        20.98125179615847    5.10193394605277   14.57597165429624
C        18.88050836592532    4.96557048455733   14.17850679523083
H        18.64559727884360    4.54023239838765   15.14372135015562
C        17.87026707022369    5.20040310221298   13.26459226202304
H        16.84733768465557    4.95946189149051   13.51993279650221
C        17.95891639161611    2.70252314212513   10.59989640032310
H        16.91747634812200    2.61007275912435   10.31927266118781
C        18.43278377327819    2.13814712990443   11.77255682927723
H        17.75446985219444    1.62339784369245   12.43455574728741
C        19.78007851013550    2.24675478992085   12.07441812219632
H        20.18348882398850    1.82256572333217   12.98150334035414
C        20.59660991845325    2.91032348577772   11.17520540977690
H        21.65480143407903    3.01313761458889   11.35625352292515
C        20.03014911214679    3.45434111889312   10.03377175838239
H        20.65182042772582    3.97971258557843    9.32150608956973

