104
CSD_code = ROXBAJ | q = 0 | S = 0 | Stoichiometry = C36H58N5Si4Y | MND = 5
Y        25.84863906793746    1.25948729950301   28.61888299408008
Si       23.08631883545228    0.35134936174095   26.50321568691241
Si       23.68229768897505   -1.37124247269421   28.84428789139693
Si       27.91199157823509   -0.51393528592071   26.55567089009786
Si       29.05672453432454    0.04146011045010   29.31463659771006
N        24.03976566120263    0.03224433753716   27.90380676809386
N        27.83223127260104    0.22322356014430   28.11227688794103
N        25.68520260001457    2.02427241269800   30.69727086996517
N        24.31000587586009    3.27623110377950   28.37962670317406
N        26.82984318914301    3.31086878232687   27.44051270964264
C        21.19928718665987    0.33946318142630   26.85366523398462
H        20.91074447554906    1.11840836955945   27.55358851055712
H        20.89406112819003   -0.61053214383587   27.27780824902485
H        20.62883468963857    0.49284985992368   25.94288060356659
C        23.36585746387795   -0.90494223445164   25.07858745565167
H        22.75736326493793   -1.79121570858106   25.21857458358053
H        24.40144955593381   -1.22465524554424   25.02988204434672
H        23.10541356366976   -0.48153066260685   24.11284011524023
C        23.41065086460210    2.08383829080424   25.73387858929708
H        24.42961442841339    2.43259032984670   25.87892920990762
H        22.74240856443129    2.83392895594738   26.14515007891575
H        23.23091960256547    2.04881257402606   24.66403927412891
C        22.30133255415050   -1.07054925269550   30.16070050459867
H        21.63291211738050   -0.27227881886526   29.85358888761507
H        22.70215192698047   -0.81105930442317   31.13648436098653
H        21.69685091214357   -1.96275390340862   30.29144982701578
C        23.11058343501237   -2.93053292068573   27.89498634719619
H        23.79671299132015   -3.19103828645270   27.09739961498482
H        22.13438880743161   -2.77568314903698   27.44971829620904
H        23.03697880691769   -3.78695315174284   28.55818404456947
C        25.28229024646604   -1.87024279791290   29.77348698391590
H        25.89152545627223   -0.98546302284949   29.98326490378375
H        25.88808771373815   -2.54835903794626   29.18233085089536
H        25.05927870510245   -2.36930368204609   30.71200424028192
C        26.89089064717221    0.54836061085379   25.32689694869481
H        27.41559516264551    1.44596381819788   25.00977143066793
H        25.94576338283063    0.84224969817196   25.77967814721573
H        26.65764314816168   -0.01914834432147   24.43144890420599
C        27.16873954806059   -2.27868471343351   26.50107934867376
H        26.11190809871757   -2.25053969188828   26.74978595588524
H        27.66158833761909   -2.93694606205703   27.20954467148552
H        27.26974821268574   -2.72440937083864   25.51600232868972
C        29.66616903568180   -0.59981478419565   25.78515487092985
H        30.18317936446831   -1.50059405362590   26.09238683718812
H        30.27611709931806    0.24518190985487   26.08712322098452
H        29.62041207061332   -0.60379191558554   24.70067156037005
C        30.13851140756148    1.63467625578232   29.39735187339118
H        30.70863947559570    1.77512747104815   28.48397935278187
H        30.84831646495946    1.58321264832259   30.21684188807347
H        29.53018052711014    2.52258722062989   29.54705175767585
C        28.33353977453737   -0.23144214287634   31.06917674356021
H        28.07037673995355   -1.27282077174023   31.22739003293013
H        27.44579817775667    0.37132731747659   31.24203761304721
H        29.06200320614376    0.03414617796791   31.82986638718021
C        30.27951857951771   -1.40669375936376   29.06171388686520
H        31.02762683831451   -1.16985487230751   28.31531499536515
H        29.76073404916113   -2.30047875947743   28.73468824122405
H        30.80052074435965   -1.64531450402049   29.98324845006170
C        26.58560474398722    2.97994162706052   31.34012274283307
H        27.62005644879086    2.68401359929731   31.12462617762261
H        26.44726580501488    2.94804951075433   32.43172679141183
C        26.40287214216237    4.41028799316502   30.87945327088319
C        27.31468737877169    4.98493207470607   30.00047717235826
H        28.16046938801341    4.40289592882644   29.65998536058896
C        27.17981661558304    6.29875014590795   29.58708812870039
H        27.91426525566908    6.73120160937768   28.92180032000948
C        26.11481378660828    7.06127744598406   30.03369417746296
H        26.01047167688260    8.08968437116330   29.71910933092937
C        25.19704564993860    6.50273197813208   30.90704898567543
H        24.37167258050941    7.09599274933413   31.27455100058854
C        25.34775185647552    5.19585675751978   31.33434584271052
H        24.64842486017211    4.79238313054133   32.05049240919867
C        24.43926967778361    1.87552882198601   31.44366208053606
H        23.82458362679948    1.13246923936059   30.92171003844161
H        23.86947327062881    2.82398699268026   31.47525114519178
C        24.65071808442437    1.39473670252935   32.86440809520448
C        24.38530955949182    2.20860705181337   33.95834804559937
H        23.99199579035622    3.20467175670514   33.80526350735674
C        24.61042183800297    1.75777327583303   35.24832393061139
H        24.39966667335309    2.40437437235330   36.08810362657798
C        25.10580908916042    0.48381706135524   35.46105637319241
H        25.28329704390996    0.13172801931307   36.46667684101540
C        25.36901402143049   -0.33791930367665   34.37717383865839
H        25.75048989711617   -1.33592354489790   34.53676464604852
C        25.14205580176752    0.11424705278804   33.09063813493792
H        25.34185939837922   -0.52550708516297   32.24533983294987
C        23.09504839045964    3.24210085165597   28.91669580856003
H        22.73894973316840    2.25984155739191   29.19842704254508
C        22.30298338394386    4.36435195412168   29.08238764974116
H        21.32335490299525    4.28304344195114   29.52595500902728
C        22.79776483462186    5.59032472551108   28.65672762616181
H        22.21871731826846    6.49346125424542   28.77754182088056
C        24.04181825048720    5.63121357292064   28.05781090906745
H        24.43841842185889    6.57254783846878   27.71609641768223
C        24.77621485109877    4.45174110723443   27.91757228684466
C        26.08927718016735    4.42089341051812   27.26008053715449
C        26.55662973060924    5.48184463525283   26.47724489091759
H        25.93713047901178    6.34434169051749   26.29481861944869
C        27.81667282477128    5.41144209685352   25.91772484192320
H        28.19005213507070    6.22093774662090   25.30797498546892
C        28.59183805571249    4.28348064447044   26.15418615102077
H        29.58726114839854    4.19497946781658   25.74991463472283
C        28.04760900228420    3.25816532223565   26.91036036871791
H        28.60053853794977    2.34764251720411   27.10842229637208

