76
CSD_code = ROXJAR | q = 0 | S = 0 | Stoichiometry = C21H41B9NO3Y | MND = 10
Y         6.34272467302810    4.07907554839534    0.02479635556023
N         6.64361332887253    2.71277186940178   -2.65781462704518
C         4.41443007150647    5.18572191945023    1.95930346382469
C         3.77525370203684    5.44267203758116    0.57853369791424
C         5.27919095888992    6.41202491172741    2.18836860220618
H         4.75258077911728    7.23402208992535    2.70235676237338
H         6.21054180938027    6.20894504191366    2.72032632341371
C         4.36021418995071    6.78021627274777    0.15235606675856
H         4.57668032965955    6.85886962259597   -0.91786279279172
H         3.74628501666250    7.64621820701069    0.45140482134599
C         7.69642723579431    5.12124028708959   -1.58585420645141
H         6.99677697042651    5.47322089943701   -2.35540755252639
H         8.29625225556017    5.98857224391983   -1.28423239083590
C         8.58722891778255    4.08514864054101   -2.13400374304783
C         9.97981939284466    4.21076644554841   -2.06532270250080
H        10.39687205843725    5.10735774497062   -1.62424287521907
C        10.82881308768842    3.22954504445369   -2.53808574622496
H        11.89928450486934    3.36395971881622   -2.47212656924548
C        10.30823142661924    2.08199824189720   -3.10971081302410
H        10.96264144756484    1.31646058604033   -3.49933996219270
C         8.93232978367489    1.91996210856952   -3.17898597756623
H         8.53715773007859    1.01510930559971   -3.61739674967316
C         8.07225476450685    2.89085478104106   -2.69448121041140
C         5.99317736538523    3.30350970423387   -3.82424055066123
H         6.18095716045133    2.71134026180656   -4.73167319191728
H         6.36903345702835    4.30901604014408   -3.99683347574467
H         4.91728904212276    3.34858239912575   -3.65277043857142
C         6.20698180608927    1.32895200648750   -2.51596184863808
H         6.32584552373005    0.74553428063747   -3.44019553697479
H         5.14870675940332    1.32840196377179   -2.25069675273799
H         6.77067138857846    0.84716008361005   -1.71840709812355
C         7.46636445678054    0.77191341695367    1.57383312982074
H         7.20889684618978   -0.03480995259309    0.87345873416033
H         6.58384268680343    1.04103423994660    2.15388492686926
C         8.67539733725279    0.37112390046072    2.42648978225706
H         8.64463170283065    0.87922007708568    3.38936390745260
H         8.69917673786230   -0.70088028998992    2.60575119577600
C         9.87250284076025    0.85615515251001    1.59146435038013
H        10.46316310990367    0.02721028150124    1.20760717932628
H        10.52779567939920    1.49423046182841    2.18102881160720
C         9.22185910543272    1.63986471187349    0.43807149579002
H         9.20791952458547    1.03366429713525   -0.47725814444519
H         9.71093054385914    2.58840786213495    0.21536060638748
C         8.90445194030375    4.34123295083418    2.86578476120278
H         9.92535076692172    4.01544769666300    2.61880975955546
H         8.29284172705460    3.47733328491420    3.12266168936190
C         8.93593467442930    5.42029536239422    3.95045869470438
H         7.98090035597147    5.44596056667689    4.47491177563528
H         9.72597719085111    5.24598428718105    4.67730563347914
C         9.14829399076427    6.70855608588807    3.13935622847521
H        10.15823217232165    7.09628579428719    3.26009976508268
H         8.44891155007507    7.48576250459369    3.44049047593472
C         8.90342053543109    6.27122266680180    1.68185469850614
H         8.21178082875863    6.92246150966304    1.14605745702820
H         9.85304322790223    6.21610308643519    1.13201058415457
O         5.61785680711941    6.84400410808024    0.85534410294951
O         7.88642503694531    1.92090160660482    0.84444337977856
O         8.31851734846222    4.97210187980816    1.73669273876122
B         3.75006798748775    4.12309764144240   -0.36231045133335
H         3.74166417114040    4.26692840498303   -1.55251988259827
B         4.44711929175881    2.78229851921395    0.66947455892792
H         4.79665288577597    1.68936942987686    0.30480273613626
B         4.92585725252232    3.65723715845451    2.16147784473442
H         5.80464465470349    3.44771414291488    2.95690502654265
B         2.68743565085252    5.47228958126967    1.94374459341435
H         2.30864802065493    6.52508021200037    2.31513693367452
B         2.22319853355202    4.73435347745556    0.42757101774134
H         1.40602904921078    5.24334151882136   -0.25086213134099
B         2.67544664969611    3.01785354915041    0.50538352494130
H         2.04508783357931    2.18779212353694   -0.05142477102423
B         3.40799085860913    2.72834675287404    2.13792665744515
H         3.28894407872227    1.69748612624453    2.70556894853776
B         3.41397559606422    4.26889049760021    2.99589844188802
H         3.44806741984379    4.45538116154321    4.15976689063630
B         2.02045615861595    3.86682877148937    1.96227628471351
H         0.95902824449498    3.61349307296498    2.40474677569364

