75
CSD_code = ROYCOZ | q = 0 | S = 0 | Stoichiometry = C22H43BN6PRhSi | MND = 6
B        16.98829879211548   13.04787046850074    9.85472811823475
H        17.46679499022438   14.08398940962673   10.14755277630031
C        12.95675870198497    8.95388646387621    6.74739926054138
H        13.58134547837242    9.13856692448838    5.87696053658690
H        13.21310756762564    7.95222795165968    7.09541946206216
C        11.49718804333851    8.96818616113752    6.31700012697228
H        11.30016868306802    8.19608966874747    5.57332583906760
H        11.23799492793444    9.92994197307077    5.88211261381010
H        10.84381479129485    8.79487022523068    7.16875028831739
C        12.49355471634451   11.89798565455804    7.76814771021262
H        12.90827316600685   12.34461014502643    6.86654828287949
H        11.43985867320278   11.70569498630135    7.56439038031413
C        12.59278211068244   12.91121207918782    8.89812643052334
H        12.06086516881540   13.83026395955868    8.64966639372786
H        13.63140345956065   13.16654942932588    9.09392010241961
H        12.16711024683604   12.50721241527969    9.81338215474207
C        13.99769932900690    7.44539387215567   10.55949628998161
H        14.26111354271224    6.41812245771266   10.80856610405499
H        13.22937998516602    7.44262568074155    9.79105368060735
H        13.60788745801287    7.93115125764581   11.44623474213074
C        16.09865229307968    6.88215604469568    8.92540917119932
H        17.04984945867562    7.10298712115217    8.45690248839689
H        15.36740518199234    6.69243295550981    8.14175329260507
H        16.19770687218048    5.99603650656765    9.55164934461603
C        16.56084048802649    8.20082596150214   11.41178047832907
H        16.58198327911549    7.18580884486820   11.80701457945730
H        16.16611065275233    8.87850857331612   12.16710087386749
H        17.56957169242289    8.52117416439478   11.16190572737598
C        13.25267159522453   10.50908079571142   11.99119449380738
H        13.02114397057696    9.97470241847375   11.07951126852585
H        12.35371824680227   11.00311431791984   12.35686795942675
H        13.57961576050365    9.80818159344093   12.76112602987223
C        14.30598445346860   11.52600381278184   11.74285275729774
C        14.56626009629742   12.60508410334573   12.59152051343952
H        14.06320713774467   12.83919175207868   13.50803416201696
C        15.59514804510538   13.30296076537659   11.99657953318689
C        16.25840409170163   14.54299144071683   12.47867103678984
H        17.32401405769120   14.38109716590548   12.63163210833520
H        15.81049459228611   14.84430553465832   13.42231449756435
H        16.13926415914312   15.35171338986184   11.75975884719820
C        19.14446377330086    8.76198089885468    8.57439320611806
H        19.06147190165103    7.96200675854538    9.31071570081624
H        20.12764568328988    8.69442284755590    8.11270992196757
H        18.38113904295942    8.62870540186927    7.81096278496180
C        18.98177069153763   10.10007263955391    9.20198315058341
C        20.00282818915730   10.91128510440980    9.70571724764382
H        21.04562767388466   10.67359519878485    9.77144492662471
C        19.38490841757710   12.08660444648499   10.08460756086474
C        20.00440436414860   13.29856196282125   10.68255908270254
H        19.90884444441168   14.15351188512921   10.01491112964373
H        21.06021594301741   13.11213475502252   10.86238389335901
H        19.52537463279057   13.55209124276174   11.62672607729830
C        15.28288494092007   11.47278266088497    5.43125058372265
H        15.63952973854265   10.46521810503462    5.62732952725544
H        15.69262155438686   11.82576588380011    4.48689234463384
H        14.19906483022959   11.43873640482456    5.34224496352201
C        15.70863308964362   12.39038165812889    6.52143460026980
C        16.04358364478209   13.73676590551089    6.35785886021969
H        15.99092772943342   14.30866442340706    5.45343640147317
C        16.46178549820787   14.17323733010046    7.59799648246405
C        16.92755446691366   15.53314758749297    7.97772641204074
H        16.36923486429591   15.90779220091784    8.83345953851497
H        16.78252945654689   16.20850215162283    7.13837368073034
H        17.98475630319594   15.52424770794940    8.23926543294640
N        15.13524721995022   11.56748642001716   10.70129192485605
N        15.91273226927860   12.65448256732728   10.86099906461739
N        17.82350888085132   10.74345313387515    9.29905899806915
N        18.07136200703135   11.95640939724916    9.81703259771296
N        15.89568350687395   12.05381633166924    7.79693760788170
N        16.37359412445531   13.13054379297443    8.44626566803489
P        15.49381140657598    8.31297272453469    9.91536248594392
Rh       15.59190474571540   10.33530030222248    8.85799599777112
H        15.97698270824299    9.57646100840122    7.62705706105201
Si       13.33885097687538   10.20341336493636    8.18506625874662
H        12.32017532222648    9.67443734920399    9.18118836815146

