81
CSD_code = ROYFUI | q = 1 | S = 0 | Stoichiometry = C32H45AuPSi2(1+) | MND = 3
Au        4.70362056188424    1.15261396860814    3.21437442159849
P         4.24710098356992    1.23577183031989    0.98450728846327
Si        7.43919886416325    0.44863808588561    5.46940606789432
Si        2.86256641473399    1.86717300973709    6.25595062408806
C         5.64036026717164    0.98414646422619    5.21535685652650
C         4.47526356130621    1.34190536268429    5.41379599365939
C         7.88675058594590    1.04717257176810    7.21436196900015
H         8.92348920325996    0.82357244728601    7.44614897892352
H         7.26910902998398    0.58137420541728    7.97552791516629
H         7.75637776336641    2.12136878209660    7.29819013273643
C         8.44449578530978    1.34035504408549    4.12163985375648
H         8.37932354531171    2.41704828536582    4.24429240226121
H         8.09713876635285    1.10237031771995    3.11997351228356
H         9.49479733393643    1.07301394549661    4.17733179663610
C         7.45109524934075   -1.46743023589697    5.26896729625735
C         8.85446512128349   -2.00924904177588    5.55001613189833
H         8.86997224942795   -3.09181641099144    5.43326267810136
H         9.16469787305518   -1.77784796059456    6.56610290421754
H         9.58372301659172   -1.58667509652789    4.86232461660343
C         6.46882132846271   -2.10854888999372    6.25151055955891
H         5.45496740905400   -1.75351133665625    6.07559799577242
H         6.73819758947910   -1.87972857239534    7.27957600440475
H         6.47405346385378   -3.19129561105340    6.13710550266021
C         7.04934406378484   -1.86431587410738    3.84602760635247
H         7.03545104358845   -2.94876999862962    3.74870336368731
H         7.75723831080937   -1.47220265549662    3.11913892995491
H         6.05370565037876   -1.49198231824404    3.59992960684407
C         1.52805790473034    1.88962773052941    4.89786281031010
H         0.56340972451634    2.17422241887343    5.30538840412311
H         1.40983184962069    0.91846813570539    4.42708703019208
H         1.77285805359663    2.60550928813624    4.11791386425956
C         3.18965689743849    3.60566917927116    6.94691666324028
H         3.40779224683805    4.30779223360027    6.14824396035672
H         4.03197180927099    3.61347818054170    7.63123150596509
H         2.32354125073536    3.98052342103503    7.48301152839568
C         2.56912741695945    0.52085894074264    7.60041826930422
C         3.79960722669288    0.39757978726801    8.50190721833847
H         3.63308085875774   -0.36615044422825    9.25971866967233
H         4.00710021941932    1.33611703392195    9.01010111259890
H         4.67680810182028    0.11959867525371    7.92157424184778
C         2.30296464164294   -0.83537568702869    6.94264971196276
H         3.13025863228297   -1.12532667425417    6.29680315689826
H         1.39351225173505   -0.80945574130575    6.34706066966755
H         2.18359668917346   -1.60386393288703    7.70438594754924
C         1.36123428965021    0.89938682130791    8.46014681441868
H         1.18427429859710    0.13356679200890    9.21363713544088
H         0.46128925952023    0.98942347674283    7.85572983053226
H         1.52759524967859    1.84306982047015    8.97433259360915
C         2.51063167342033    1.63168470596371    0.66195378387510
C         2.10420011540432    2.74534078649949   -0.06274888308469
H         2.83834034198230    3.41017302301242   -0.49529568744450
C         0.75184814133066    2.99423975515083   -0.22783189882955
H         0.43340920171843    3.85559951317762   -0.79473169098990
C        -0.18846839510963    2.14466589019897    0.33064269174785
H        -1.24031857031409    2.34423545161997    0.19696969819068
C         0.21688890462063    1.03874828693543    1.06416882316475
H        -0.51768597961716    0.37942152908649    1.50066105304084
C         1.56296658922589    0.78478476984785    1.23660947365545
H         1.89801976983482   -0.07388053910402    1.80606588053730
C         5.21505370635855    2.47504751746186    0.08850595468690
C         5.29682399915645    2.44296007706935   -1.30185491734131
H         4.79034032499295    1.66201167047286   -1.85264191819628
C         6.02799682795581    3.41055609303673   -1.96500900617269
H         6.09263921628807    3.38986061970319   -3.04205725215341
C         6.67803318598142    4.40485685197415   -1.24910227802736
H         7.24837698492047    5.15698360218459   -1.77173923117888
C         6.60152126104627    4.43396286341024    0.13422207901846
H         7.11100451146260    5.20684094103342    0.68904787625821
C         5.87266935163255    3.46887606761514    0.80570003669438
H         5.80661884709848    3.47643164767289    1.88745861368631
C         4.56284594272663   -0.29914472154919    0.07448904260030
C         5.76096433097112   -0.95323502044748    0.35127669407136
H         6.42727406520176   -0.54058539039296    1.09824674776220
C         6.08728781309023   -2.11189173818521   -0.32592576830688
H         7.01548008856052   -2.61912378457352   -0.11208014701398
C         5.21758839036991   -2.62206594756401   -1.27813750409784
H         5.47037304527479   -3.52828470152130   -1.80633533126419
C         4.02452965709706   -1.97348655179867   -1.55276076181922
H         3.35040140470674   -2.37310818528836   -2.29488039526114
C         3.69057327043574   -0.81096626617115   -0.87984306913708
H         2.75837807409111   -0.30567859055726   -1.09128485661925

