54
CSD_code = ROZNEA | q = 0 | S = 0 | Stoichiometry = C22H28FeOSi2 | MND = 9
Fe        3.26511867137564    1.20027401054091    7.04857281213847
H         3.01182987499934   -0.01179224535825    7.75638642851130
Si        4.06048795122903   -0.64777892876701    6.06696801542671
Si        3.36260847789988    1.39126276652952    9.27713576851761
O         6.10013244320317    1.61968585222378    7.23457875504216
C         1.25870092791586    1.46389421289891    6.47441929270333
H         0.39459742185847    0.85903025160719    6.68411965877362
C         2.05494739435891    1.36856092111867    5.31374167423842
H         1.89692849125040    0.67993872373897    4.50374161296146
C         3.01956940472917    2.39672805781375    5.37124922858634
H         3.74492368692330    2.62977765210203    4.61254266195257
C         2.78250848077780    3.15492136421185    6.53980311512028
H         3.29584321787861    4.05681956991554    6.82206424442694
C         1.67031092713477    2.59777295943607    7.20467223411443
H         1.18036600664653    3.01414046690018    8.06548608706051
C         4.96607318372902    1.41457010702526    7.21422353909563
C         2.58403624711384   -1.73289745397945    5.54999057111794
C         1.50510955437565   -1.89911527056348    6.41021025114981
H         1.53009796860058   -1.40024437930951    7.36882172092140
C         0.41562064867014   -2.67366112970715    6.05899583360570
H        -0.41248957139248   -2.78940394718693    6.74440380781833
C         0.38336802380108   -3.30103242769958    4.82426242440793
H        -0.46806345279885   -3.90349613224737    4.54182164934754
C         1.44918752901917   -3.15013400923866    3.95406485066082
H         1.43137797921846   -3.63738986282147    2.98922366668216
C         2.53656134424208   -2.37512745328667    4.31866167887370
H         3.36364548167183   -2.26480041622957    3.63339688993314
C         5.23308553668211   -1.77164706807438    7.08456516626366
H         5.61805364570409   -2.58599540667946    6.47989825520437
H         4.71710502200117   -2.20707571477880    7.93282577265211
H         6.07839864351081   -1.20898951659820    7.46270910036258
C         5.01910836714596   -0.13299746157976    4.48973014603464
H         5.72718562220420    0.65308079376768    4.72380516517267
H         4.36009391091717    0.23742785076979    3.71262773052796
H         5.58176250991852   -0.96456690123965    4.07888781160926
C         3.48393126882994    3.24802021659747    9.68932441273106
C         4.56920622527518    3.99344864451105    9.23912842674708
H         5.34402125727997    3.50020701368749    8.67496085841580
C         4.66975751738219    5.34852439946803    9.49477103572790
H         5.52344482545554    5.90534805777575    9.13470883015996
C         3.67434374348262    5.99438576559064   10.20967953502919
H         3.74675051178176    7.05402854694366   10.40819521920496
C         2.58632969572592    5.27179967152129   10.66718490228070
H         1.80520137095027    5.76780732104295   11.22621995534272
C         2.49802897446155    3.91502621609872   10.40842983322409
H         1.64476932702507    3.36295253763849   10.77368176531628
C         4.82817655289562    0.54413480350507   10.17112448085192
H         4.72362345660808    0.61390711110668   11.24850714967338
H         5.77118080161671    1.00471311249238    9.90386766531884
H         4.88713714933493   -0.50477128656218    9.90683938831631
C         1.76490867012906    0.68914054244517   10.06948832300071
H         1.76218117492744   -0.39241154823438    9.99346315434440
H         0.87544960369588    1.05019715734022    9.56655092922396
H         1.68616630064190    0.94120188175877   11.12146651404420

