57
CSD_code = ROZPAY | q = 0 | S = 0 | Stoichiometry = C14H38FeN2Si2 | MND = 4
Fe        0.68998875064523   -1.05863819007288    3.01764500191565
Si       -0.90573202366298   -3.38975224452599    2.44136389920375
Si       -0.89263735394834    1.62335081376561    3.56773744900513
N         2.82366715085999   -1.24669502218980    1.69744913041938
N         2.49407123446067   -0.59726302699523    4.67708526847287
C         0.52131737022964   -3.01851336029183    3.60414733476655
C        -0.39185543939011   -2.89502207079861    0.65950430062452
H         0.06972037724703   -1.90591118079526    0.68814682471458
H        -1.24522294416211   -2.84648016269655   -0.00909263029894
H         0.31891746855598   -3.59171459653393    0.22815385449905
C        -1.58870512949939   -5.17922917227152    2.38841028434874
H        -0.81075713291234   -5.88648285942437    2.11910598139409
H        -2.39186004397392   -5.28184039290906    1.66504088520562
H        -1.97815083976958   -5.47504625914702    3.35710450330393
C        -2.34101541866719   -2.19683381546270    2.87073953261410
H        -2.69513862500807   -2.34190145136942    3.88548023875041
H        -3.19108374920646   -2.31886305659815    2.20679181047221
H        -1.99124513326735   -1.16795287275984    2.78403838547999
C         0.31408152580586    0.84998319076768    2.34849621412151
C        -2.63500859937407    1.93804366513514    2.83407170953034
H        -2.59317566871851    2.65812445122314    2.02266433197806
H        -3.31847650174911    2.32762965131500    3.58293063314958
H        -3.06933112119623    1.02575122179832    2.43775356566304
C        -1.11760135226907    0.42859788401384    5.06502266339682
H        -0.52215045485407   -0.47996433874983    4.92385301781190
H        -2.15255450199857    0.12321259055563    5.17579962890973
H        -0.81585845568915    0.88348754698990    6.00372439602209
C        -0.31287657737348    3.31559403585516    4.26078702785229
H         0.68822780208960    3.26487246563374    4.67626287448538
H        -0.97604767124607    3.66941909856350    5.04456723181876
H        -0.30247991412542    4.06848079774834    3.47906778038038
C         2.75123047208356   -0.56703137323045    0.40881743178711
H         2.39104951152417    0.44814969855544    0.54819036969647
H         2.05472014889016   -1.09363160810707   -0.23868325904330
H         3.73243254922434   -0.53404117328567   -0.08867739093817
C         3.23251642466609   -2.62552771956945    1.46333688960643
H         4.21362036540300   -2.67626634811001    0.96601254996525
H         2.49209542489389   -3.11450783367743    0.83721473536899
H         3.28538523025841   -3.16746913927073    2.40139786391161
C         3.79642040554000   -0.55781153107473    2.54538953120110
H         3.59355648664827    0.51105169473137    2.47861742345319
H         4.82253745666628   -0.73240359037893    2.17574700101299
C         3.73654207795195   -0.98511175976352    4.01073431929226
H         3.82094354252187   -2.07020405627188    4.07012618323479
H         4.60714777053850   -0.55104447777614    4.53311696308938
C         2.50654808436556    0.82441135976395    4.99570547188099
H         3.36441398090642    1.08678422785583    5.63419350899732
H         1.58830267121616    1.08096187619118    5.51437034124865
H         2.54791934326987    1.41205250132781    4.08514123839457
C         2.35952933510103   -1.34939287791696    5.91911446258724
H         2.30843575189871   -2.41222340491654    5.69930123708196
H         1.43934178499496   -1.05629135993370    6.41848255829817
H         3.20334436247738   -1.16396264077491    6.60076941622553
H         1.35489376616896   -3.70926063449182    3.47940297457846
H         0.19966491101958   -3.09589460974222    4.64692737463128
H         1.16023509787398    1.51514929921502    2.16555852087668
H        -0.17375398390679    0.70007214087865    1.37673915353512

