39
CSD_code = ROZYAH | q = 1 | S = 0 | Stoichiometry = C9H22CoN4O3(1+) | MND = 6
Co        3.87863676046358    8.10408546696613   18.94298203929544
O         2.45596768462461    7.38640056668730   19.78428405973762
O         2.94658459155097    9.43643430340227   19.74888331346383
O         1.10025496518516    8.81994009234388   20.88458507392996
N         5.42408185374477    9.14856884803160   18.13284368132410
N         2.74312422385742    8.35452015026751   17.36525543323028
H         3.02255076974374    7.82715914713886   16.53563374683991
H         1.83458512751252    7.97908200372314   17.65617599562353
N         4.91096050429432    8.05667407594576   20.60308349323518
H         4.25856768643118    8.05617173880619   21.39186388959172
H         5.55316516444927    7.27853752309913   20.76572875075489
C         5.66554067300949    9.31958600153171   20.59385938407524
H         6.39423985129924    9.36626803435855   21.40949217293850
H         4.95540570724298   10.14014468084263   20.70875232658030
C         6.18752234935851    8.54758652963478   17.01651481671645
H         7.09790626663745    9.13874740685933   16.86024216984789
H         5.59294639102006    8.61905545847517   16.10770495462943
C         2.05800076990050    8.57509751880819   20.21579615913063
C         6.57448137861575    7.07892497747078   17.18761162259982
H         7.26318141404387    6.82951234898750   16.37975472670855
H         7.10462848661379    6.90630222164746   18.12482359233760
C         4.88615799427375   10.45903935010251   17.68757413651923
H         5.72271542206185   11.08451930653513   17.35308967950510
H         4.42033991113736   10.92778930266559   18.55474083069981
N         4.52429560727436    6.29754614105462   18.29654991037215
H         4.99276353126540    5.83518823743491   19.07599689994104
H         3.66477139703003    5.75921964220341   18.17273478022922
C         3.84742646686335   10.42151805210593   16.56532146406508
H         3.63019350364627   11.45861835948683   16.30725669716190
H         4.24276358103069    9.95152875939624   15.66323191766152
C         2.53470672908033    9.76002622186452   16.96492002364950
H         2.09998311020075   10.29308247414537   17.81195445000735
H         1.83398500068772    9.80773486920599   16.12474305325589
C         5.37745185780642    6.13799166102571   17.10914205135557
H         4.79439093367711    6.35949453234907   16.21272188165015
H         5.73316748200777    5.10554403581052   17.02508447107247
C         6.37291791417767    9.39990199086160   19.24856655197956
H         7.15124947383796    8.63554110203042   19.22240308611103
H         6.85728746434203   10.37361686669375   19.12939671217265

