95
CSD_code = RUBCUN | q = 0 | S = 0 | Stoichiometry = C45H41AgBrN3OP2S | MND = 4
Ag        3.50295667601650    2.04181260449729    4.26256636245698
Br        4.06307451093275    2.31703879521957    1.78522801819805
S         1.27148090287297    0.41243523239433    4.67327768018257
P         5.10576213681990    1.86834411213946    6.22712968102261
P         1.95528365974998    4.11422980271737    4.93293497077848
O         1.17353527514157    4.94228455341880   -1.08109909003198
H         1.41256047077904    5.55998531130961   -1.78294977877288
N        -1.12686143929178    0.97832077690831    3.71597119192996
H        -1.66110495831670    1.43196280960751    2.98515552410355
N         0.63731541220640    1.79490029439922    2.52562217858098
H         1.65028148637091    1.89465738994283    2.36367628542837
N        -0.24312721113286    2.38247535194929    1.69252684614641
C         0.20039058314004    1.09169617019687    3.59102056557300
C        -1.80745796047273    0.29395432890284    4.77711050796752
H        -2.49494960430323    0.97097038539910    5.28884874482149
H        -1.06375557726786   -0.06553780985894    5.48713809772256
H        -2.37078428578156   -0.55771883199014    4.38925249301300
C         0.21069694328126    3.11455198804052    0.74829969015334
H         1.27869265667387    3.27306442620169    0.60335055319954
C        -0.68308671410208    3.78540624625824   -0.16426940713339
C        -2.05937394400936    3.55721976677195   -0.15631243905687
H        -2.44841404504582    2.84434793899993    0.55288325655492
C        -2.89926741098703    4.21645167821559   -1.02941249151646
H        -3.96171353990540    4.02651097125775   -1.01044941640697
C        -2.37292349732900    5.12354824412180   -1.93651860110745
H        -3.02189499658036    5.64340257757485   -2.62533417043043
C        -1.01202571441351    5.36654824970886   -1.96416027747871
H        -0.60112850932785    6.07438255416281   -2.67278240201993
C        -0.15809849407385    4.70887102779923   -1.08738418805744
C         6.63164188029388    0.92802723947736    5.88073235423860
C         6.88529405060486    0.53921843733336    4.57064767645195
H         6.17892529947831    0.79878249997014    3.78893715444858
C         8.03268250853568   -0.17120193903516    4.26519359327902
H         8.22518975164849   -0.46795706277655    3.24504283458180
C         8.92792805114610   -0.49979807076125    5.26881919380664
H         9.82337350351844   -1.05618800819128    5.03368304422235
C         8.67609178823314   -0.11781570414154    6.57806218496937
H         9.37510861753776   -0.37679762437157    7.36030980686570
C         7.53260734372987    0.59331136361865    6.88772662678251
H         7.33597673252315    0.88954021215334    7.90875450047137
C         5.76545501487399    3.44867078000427    6.84236417544142
C         7.01865155714942    3.91177612280148    6.45567266657898
H         7.64956288224215    3.29694093674638    5.82888517150763
C         7.45722937357651    5.15476162927125    6.87463200582466
H         8.43484355523907    5.50518069012343    6.57707892330024
C         6.64971230302983    5.94758619875551    7.67208565852679
H         6.99761040082361    6.91487920237835    8.00292040482893
C         5.38982026213473    5.50199247751397    8.03861019661739
H         4.75143210744689    6.12246966813194    8.65051504168917
C         4.94305761089814    4.26553320447793    7.61685540946284
H         3.95384789223994    3.92412360903797    7.89374046086103
C         4.55347077305489    1.03435090929290    7.75290295315690
C         4.94047401009780    1.41114164660764    9.03433460138963
H         5.59648430593367    2.25844122170118    9.17926452426960
C         4.47414952102886    0.70601254135974   10.12938189934471
H         4.77640100634785    1.00284720232768   11.12366604425871
C         3.62411396085911   -0.37430802000679    9.95703260271778
H         3.26140368153234   -0.91781195286320   10.81735334755319
C         3.23612124597224   -0.75314052991270    8.68205576643880
H         2.56882820654985   -1.59063924698298    8.54227827272688
C         3.69779530673931   -0.05114140857361    7.58499149746536
H         3.38187849136201   -0.33388328399407    6.58839887473372
C         3.07959062746846    5.53778704799174    5.17700791860084
C         4.27888196329921    5.51837330914766    4.47217818763657
H         4.50808885742897    4.67229042686249    3.83224724545538
C         5.17217167732406    6.56753506907370    4.57839008251393
H         6.09863323514983    6.54253736470518    4.02455061404558
C         4.87552245526639    7.64473396479748    5.39568355864729
H         5.57084675564401    8.46673725473172    5.48178432909471
C         3.68678963184910    7.66593562019244    6.10646979198656
H         3.45584992107363    8.50501476642593    6.74737359691181
C         2.79002770398269    6.61879729039835    6.00091251525157
H         1.87063534686464    6.64175449030321    6.56707659213946
C         1.12962273995849    3.99582153552309    6.55506379336104
C         1.54131630855235    2.96160568560091    7.38793435777047
H         2.27366826109898    2.25080362304406    7.02808701790226
C         1.00999454336838    2.81797477821289    8.65607833170419
H         1.34619203178348    2.01005990397973    9.29012401970675
C         0.04734445736961    3.70847832450649    9.10030128277539
H        -0.37302132769291    3.60373007338335   10.08982676855455
C        -0.38742558076121    4.72858325222181    8.26814025866969
H        -1.14862797916381    5.41549048785314    8.61016161541088
C         0.14582949526138    4.87519026907740    7.00053915390378
H        -0.21462542594700    5.66240941526186    6.35225680210457
C         0.66151102429126    4.87557682214083    3.89996530554094
C         1.00551055331522    5.78676119419351    2.90552087721534
H         2.03413306117465    6.10295701657490    2.80184118200698
C         0.03507388884585    6.28342342495214    2.05581893936769
H         0.30721540104863    6.99773396614676    1.29289268587360
C        -1.27973794091856    5.86504822639483    2.17520311728295
H        -2.03521432544590    6.25321889973847    1.50836014013686
C        -1.62044204095545    4.93211845460418    3.14094082278101
H        -2.64278090086240    4.59270296655184    3.22577242640680
C        -0.65590505724811    4.43174262045412    3.99390133193298
H        -0.91939517019856    3.69625056685234    4.74314548297725

