95
CSD_code = RUBCEX | q = 0 | S = 0 | Stoichiometry = C45H41ClCuN3OP2S | MND = 4
C         8.78210964222989    7.33088130770542   11.66083239513567
C         9.71910770806043    6.79530634604437   12.53893636276500
H         9.69260118007648    5.74100217600416   12.77504438266806
C        10.68267112003586    7.61153764658861   13.10263555649130
H        11.41517033891383    7.18976376721974   13.77526231240932
C        10.70820439142033    8.96600766652757   12.81641961898670
H        11.45924538562817    9.59878710641165   13.26526860204847
C         9.75676545627674    9.50897348355468   11.96771655181931
H         9.76690655295580   10.56806385992947   11.75210129935905
C         8.79607754944644    8.69956206153341   11.39399729635639
H         8.04816627389321    9.11829742014720   10.73234765473141
C         7.35750477462278    6.87958426112982    9.25695400371188
C         6.11060825697125    6.86970190764393    8.64206819228756
H         5.24162940841625    6.58786642279182    9.22560788095704
C         5.97804003822600    7.23269034375550    7.31461789919882
H         5.00348370625753    7.21949771681204    6.84821916027134
C         7.09668402936925    7.61754609059974    6.59419696048643
H         7.00044911590127    7.90433250688710    5.55719999164602
C         8.34124686028883    7.64390038671712    7.20519883047278
H         9.21137725301591    7.95095201070469    6.64252692769048
C         8.47719777460057    7.27770706198800    8.53179813620925
H         9.44760408069612    7.30610466226191    9.00885000520069
C         8.14560342640563    4.67634962115590   10.88950393633220
C         7.98901442641734    3.86588625473096   12.01195664137760
H         7.44374098548709    4.24410705322706   12.86696314054414
C         8.51873989768137    2.58978272566478   12.02678270759965
H         8.39641056842973    1.96722790518100   12.90083066344815
C         9.19836425770001    2.11056727267795   10.91905684285991
H         9.61334917384937    1.11308679966600   10.92830277845906
C         9.33837032040006    2.90703819319727    9.79472988980546
H         9.86133278655867    2.52947900333015    8.92728701028691
C         8.81238281236095    4.18627255171884    9.77321480348990
H         8.91747830344155    4.79794146717066    8.88837891447248
C         2.89686116752085    5.28761705183263    9.62184351611748
C         2.56096438174478    4.35748358479670    8.64580261823512
H         2.86031049994295    3.32399624486862    8.75201648224536
C         1.85043350353001    4.76110556871998    7.52939046616003
H         1.59040012338242    4.03710626556130    6.77028036281545
C         1.47156110398718    6.08544039014594    7.38133715584152
H         0.91862799013648    6.39251332981793    6.50546629095825
C         1.80437697592861    7.01545323195807    8.35343441471512
H         1.51330187177097    8.04920839033723    8.23866052836184
C         2.51649664174083    6.61907851893967    9.46943313215382
H         2.79649661998984    7.33709634546449   10.23098682685916
C         4.60059118418062    3.31116125341947   10.81062250838494
C         4.58533011843071    2.28233126271331   11.74709901945526
H         4.01535079698289    2.39671734987994   12.65862288983263
C         5.30143585521869    1.12306137601885   11.51118126410493
H         5.28240626946541    0.32422427530689   12.23838814341332
C         6.04186959508969    0.98460558896969   10.34920330856464
H         6.59421290457010    0.07503141241999   10.16463324367000
C         6.08528051427664    2.01905505058938    9.42782058897501
H         6.67629558468847    1.91943271451697    8.52899354925725
C         5.38217956198794    3.18388824775187    9.66260032302719
H         5.43035443922859    4.00247615466928    8.95523011427774
C         2.41761090679645    4.47448448457667   12.24535404823699
C         1.48760422893319    3.49568750469486   11.90620431263455
H         1.59253640800411    2.95032226564790   10.97820168810015
C         0.43798500708536    3.22432572564651   12.76245960451651
H        -0.28381711880119    2.46261054012479   12.50390963810442
C         0.30863157436312    3.92661511155826   13.95171349647076
H        -0.51415140907312    3.70802692279989   14.61701582676790
C         1.22943306068786    4.90446925249554   14.28714067425778
H         1.12904612765836    5.44961261493640   15.21403680806112
C         2.28281745263300    5.18229387222594   13.43363164187907
H         3.01591073488753    5.93751049841064   13.68557222937819
C        10.30968290415634    7.87914950066607   16.71819920018830
C        11.42761602239107    8.35085008931397   17.39442199330261
H        12.02203905586105    7.66147764868672   17.98087915651625
C        11.78299059129308    9.68532657698904   17.32290494443425
H        12.65503296826597   10.03470049161617   17.85508610021904
C        11.02133537996033   10.56681648168463   16.57120954365821
H        11.29894087702394   11.60854800702105   16.51561482484164
C         9.90851764441963   10.10742882610809   15.89821871857547
H         9.30214698390812   10.77705006156731   15.30973280593012
C         9.52805132608230    8.76596627986579   15.95535279163627
C         8.37404742840489    8.27048050351384   15.24400436566384
H         8.11206545652843    7.22200893477515   15.37871916684721
C         5.97683462929928    9.26629779644054   12.92876478312994
C         5.79575981431951   11.51857157766100   11.93731899594443
H         5.36848235346947   12.35967081263019   12.48646859941060
H         5.01252769630641   11.03593452902902   11.35499183913509
H         6.57010223022061   11.89188961901046   11.26296956630955
N         7.70038621935116    9.03868486860560   14.47519081481920
N         6.65081380410041    8.51079312710097   13.81340554159813
H         6.37985470722447    7.51471187049560   13.96856260821067
N         6.34023402876592   10.55112893916430   12.84513546314706
H         7.10754251283153   10.80929008939797   13.45363914991675
P         7.40809565991222    6.33925257608655   10.99700222010790
P         3.81123789676283    4.90540712576789   11.15465964267356
S         4.75002620703856    8.61263155038832   11.99195646856174
Cl        5.79700723305890    5.59446096852832   14.19754046283946
Cu        5.36032782619059    6.26604364239491   12.02407413596799
O         9.95353484748387    6.57231223843180   16.76392897211366
H        10.55498316377021    6.08386780502992   17.33945305834795

