76
CSD_code = RUBKUW | q = 0 | S = 0 | Stoichiometry = C33H37BrN3PPd | MND = 3
Br        8.75558567186444    0.27171946149434   15.67179556963175
Pd        8.35712961767298    2.46643344949432   14.73695470131095
P         7.89425962858759    4.51761551030473   13.77033472156893
C         9.17086560255032    5.76191781355803   13.39253482823229
C         9.14169597404564    7.07897456054422   13.83617236271177
H         8.33535660178132    7.42623663527344   14.46283813118146
C        10.16085608097202    7.95189658413071   13.49418278739188
H        10.12619562845104    8.97439541127738   13.84227685054030
C        11.22130216141632    7.52261774114894   12.71451920223969
H        12.01122635446279    8.20889832973451   12.44829888850355
C        11.27192769412721    6.20416267776143   12.29117026877427
H        12.10574367331109    5.85657242456973   11.69903472343972
C        10.25828831389270    5.32910272001667   12.63414814841929
H        10.31195391671778    4.29350257334269   12.32830228948656
C         6.92566884377438    4.49059379456305   12.12636656476705
C         7.84674369289552    3.94417644599477   11.03328557159320
H         8.36704541739182    3.04769976541328   11.36217757865189
H         8.57955108643584    4.69180075968035   10.73646133478551
H         7.25668209642458    3.68430727858494   10.15521844565640
C         5.76225040120873    3.52676919200381   12.35102075496789
H         5.20917641413899    3.37308347578492   11.42584707740652
H         5.07545078603655    3.92215480700553   13.09947598872769
H         6.13842240989317    2.55903430104760   12.69057974014024
C         6.39659741317814    5.84318092766305   11.64867392302139
H         6.12749587370210    5.76168782934847   10.59587547879827
H         7.15503661893596    6.62036200872578   11.73623754353614
H         5.50164301901722    6.13915898616085   12.18876181748598
C         6.74059565251716    5.28313224966587   14.95510777478679
C         6.06680833336899    6.48372942358805   14.73537057156486
H         6.27809707089864    7.07096420367903   13.85831113736393
C         5.12256177530325    6.94906732812553   15.63024201873944
H         4.60959319971559    7.87919271756448   15.43474045209184
C         4.83719182299663    6.21898903477182   16.77228626601036
H         4.09321122376896    6.56915873591649   17.47211588406136
C         5.53134883589278    5.05465826750711   17.02916979027071
H         5.34412977500392    4.50929341972710   17.94240434729593
C         6.49187640798958    4.57231580510988   16.13726546442816
C         7.29920929136356    3.42205945213699   16.61673456003668
C         8.68217859288642    3.62724252149336   16.86450372484452
C         9.32754903073795    2.89660009389424   17.86350433636247
H        10.37308262977520    3.06638943125444   18.06941382814416
C         8.62706103945184    1.97801650186761   18.62166631724428
H         9.13210137371272    1.44387037341244   19.41119355064666
C         7.30370195388833    1.69656095407331   18.34564841735417
H         6.80743114617177    0.92521810802154   18.90865465827171
C         6.63734305291077    2.35920735437278   17.31577815152714
N         9.35516924607356    4.71305268869018   16.18903928023930
C        10.72713119238121    4.36120681395635   15.83151443969589
H        11.40813436168417    4.36666210396455   16.69223475197993
H        11.09822049556139    5.08474917281292   15.10536033363188
H        10.73111466275640    3.35705417989600   15.38006839787828
C         9.32959611214486    5.92544090462699   16.99215177830415
H         8.29774776098251    6.20399549228893   17.20363635085464
H         9.80715458873816    6.72914864330977   16.43202451825615
H         9.85952514877002    5.79693686791426   17.94635070261680
N         5.34117505508452    2.05208369308679   16.95780539734517
C         5.02742864672502    2.02440357100958   15.54399247682282
H         4.48207796451881    2.92230032858772   15.23788999387002
H         4.41493245227111    1.15047259050547   15.31962371486945
H         5.96049466568810    1.94399333552522   14.94556476233061
C         4.57610959363197    1.13239767020210   17.76692750127344
H         4.90170489029109    0.09222293795503   17.64578603999259
H         3.52901421089484    1.21006027780113   17.47487142505031
H         4.65549945368897    1.41118467252034   18.81676534846500
C         9.03382721030126    1.55051402003605   13.10698870350109
C         8.22405776843552    0.70630985181612   12.35080117082138
H         7.19469895795801    0.52089794339239   12.64583929247693
C         8.72526646325252    0.06288918420894   11.23616490848920
H         8.09438309173859   -0.58925251643650   10.64970851683604
C        10.06059338293079    0.24397493355815   10.87168217878458
C        10.89033377016691    1.04693946861545   11.65503897984180
H        11.93273504356224    1.15674249675632   11.39109778575961
C        10.37773255913124    1.68592713354449   12.76827832910014
H        11.04998401401071    2.27867815028033   13.38532558387007
N        10.99456482318051   -0.89860590982614    8.78195433625618
C        10.57596921220708   -0.39370214142251    9.72345645676947

