93
CSD_code = RUBNUZ | q = 1 | S = 0 | Stoichiometry = C34H53F2NiOP2(1+) | MND = 5
Ni        9.11522690892506    9.54991160111514   12.81129524073304
P        10.27237351553787   10.42528544413890   11.23557653082046
P         7.37874977134812   10.68185810042175   12.17283077699101
F        11.84093378098069    8.48457120141839   13.69529283378973
F        10.48496388576097    9.83999129790835   14.73276733477362
O         8.34064359288932    8.45688270208449   14.09758589705552
C         8.31807727829499    4.56836837448280   12.57676949211474
C        11.82298193071867   11.34663144314253   11.61929071177705
C         9.20852396016570   11.63839046285405   10.31298872084750
C         7.71826748446301   11.34202472015098   10.47320413274739
C         5.81496564447830    8.65353165335794   11.19065982706872
C        10.66120065825559    9.11393489101024    9.98071070938366
C        10.55153890210285    8.79575519338034   13.85634977873643
C         9.45949102569447    7.89052521908380   13.84393477622381
C        12.48229875730019   11.97590028261181   10.39211668868228
C         5.22828981555775    9.51673790201420   13.47402708178221
C         9.42094312897509    8.21795247110062    9.87954554068139
C         5.70515886270978    9.90230460547396   12.07124384319095
C        12.86159911134381   13.06426460669158   13.10540185317759
C        13.55079381742383   13.68612881106175   11.89389647121742
C        12.10123774673546    7.13988734400842    9.40157503658567
C        10.87348276791999    6.23747341323058    9.35153210829276
C         4.49737646671200    7.88367123058580   11.15140531007265
C         7.78964745313791   13.26879862886578   15.39583434881967
C        11.54728922739387   12.41044577517495   12.68611557982010
C         7.65874096929876   11.95725067700415   14.62822784562562
C         7.31708978439931   12.24554615450063   13.16501306407560
C        11.88041911996838    8.28527632069700   10.38689755557355
C         6.01635447417977   13.03693184317515   13.04534817890963
C         9.52942514469210    6.50284058839112   13.35346691706323
C        13.79532748760566   12.63650810948390   10.81338748918113
C         6.15882624975457   14.34859177833491   13.81837077010400
C         9.65011564178787    7.04406554189681    8.93230499276356
C         3.90736751969737    8.75412122799170   13.41240277032025
C         6.49947264678790   14.07681584869251   15.28133122451559
C         8.32635096615965    5.87391236910616   13.02316713899991
C         4.05069466267132    7.50118477747418   12.55733292657886
C         9.51029799279921    3.86986479935443   12.46407383046955
C        10.70604741720096    4.48004692450032   12.80948740525007
C        10.72445930207776    5.78968810922085   13.25411727610146
H         7.38351981512913    4.09284887719430   12.32214375835446
H        12.50709459406651   10.60365656301248   12.05107088130127
H         9.43360166010556   12.62432302077776   10.72544406324077
H         9.49895228562539   11.64354243750535    9.25949125395191
H         7.39144344459138   10.60708825491526    9.73770837878952
H         7.12400663406443   12.24618100179200   10.31869728917278
H         6.09413996997443    8.92511532471967   10.17043143977276
H         6.60328569513866    8.01126438153776   11.59775855951390
H        10.84842118140824    9.59877344322640    9.01492084557574
H        11.82393524446728   12.73274579831870    9.96136912649816
H        12.67836046776365   11.22155894568843    9.62782368453480
H         5.99009991056884    8.89303828848942   13.94749400568133
H         5.09566489496842   10.40818650069090   14.08802942831101
H         9.17908622921918    7.83510060291142   10.88668276065868
H         8.56811883797872    8.80063685567142    9.52695107215839
H         5.01694161685693   10.62540144671603   11.61649527183845
H        12.66819841320713   13.82937391974446   13.85816008956834
H        13.51490835658086   12.31318643835290   13.55298282505799
H        14.49981953208768   14.12860613193429   12.19668487707796
H        12.92554924074030   14.48523946972955   11.48938331523821
H        12.29809752790421    7.54494275870335    8.40676700875139
H        12.97565263636483    6.56462980272936    9.70712603754239
H        10.70227800356821    5.79682227217140   10.33622555856127
H        11.03826622631358    5.42392610945783    8.64496013127566
H         3.73039300055996    8.50628208024593   10.68585407754657
H         4.61877011033073    6.98987136910238   10.53720029831854
H         8.00808858142287   13.06275501656153   16.44384392175295
H         8.62057095475958   13.84993937463875   14.98908008996831
H        10.88481050313171   13.18142829061013   12.28485490550853
H        11.05510864428015   11.96018046374746   13.55296808872547
H         8.59895131495884   11.39224978063466   14.67471471196879
H         6.88082189155343   11.34462411680828   15.08499088634761
H         8.13276009672475   12.85720858275893   12.75176759392196
H        12.77341494129934    8.91119961700797   10.42236245534172
H        11.71835985514843    7.86177174322138   11.38000397371551
H         5.18643309788507   12.46928256577496   13.46635982585743
H         5.78517173311047   13.24777920397078   11.99835756478672
H        14.47837168407874   11.87485256653375   11.19476099868815
H        14.26388234226955   13.09988206720206    9.94425201635228
H         6.94774299719114   14.95482369536232   13.36755784499396
H         5.22722764911501   14.91196115118945   13.75235752186581
H         8.76494242957070    6.40630763433947    8.92326859384395
H         9.79841867433550    7.42549611946271    7.91975387546524
H         3.59845480535720    8.48475643600122   14.42312145587335
H         3.13377887095487    9.39703179452601   12.98617520251017
H         5.68194339861504   13.52340652051164   15.74744842709553
H         6.60705640562105   15.02187234028142   15.81418629072846
H         7.40426581495288    6.42585555826819   13.13243770201292
H         4.78668717970673    6.83330390866637   13.00992814273118
H         3.10048260314314    6.96849229158541   12.51262506871757
H         9.50742568375671    2.84866964325280   12.11608609319978
H        11.63260079179272    3.93203070447384   12.73607818519170
H        11.66437665178148    6.23672427209155   13.53422251362853

