108
CSD_code = RUBPAH | q = 1 | S = 0 | Stoichiometry = C39H62F2NNiOP2(1+) | MND = 4
Ni        3.01687322869178   -0.76237041968033    3.39808687907569
P         3.59489200727291    1.34942962678060    3.17711754990170
P         2.38781785721023   -0.27121614432582    5.46328305018378
F         2.69969449251855   -1.45766899080553    0.84596527850843
F         4.54789623785172   -0.36728171520452    1.04215601168135
O         3.90147501295677   -3.66835402303743    1.65537214797716
N         1.57704048420545   -3.38436726182838    3.27554192892946
C        -0.21634292276696    1.70461642206205    1.59020762277851
C        -0.69560129638466   -0.92754960977396    8.22837698047243
C        -1.57660635914682   -1.45816991017981    5.93894534924618
C        -1.90057525479329   -0.83995978931922    7.29623996532665
C         0.64550830715099   -4.64989737082430    1.51453500457712
C         6.07836263327880   -0.75520443207500    7.40007278189300
C        -0.35872370473150   -0.77422114211440    5.32287827537091
C         0.97716876756632    1.21240093262205    2.40203840563211
C         2.02258641582805   -5.70178572169713    3.34344092466204
C         2.23142780468099    2.04820256558102    2.11615248575929
C         7.72586487979440    3.51247243909591    2.68797436970935
C         0.11072323007995    1.69606098245520    0.10112608412381
C         8.17260784271309   -1.84862930023436    2.44244506772266
C         0.98305655947820   -4.63012917668506    3.00659968027687
C         0.84011074233040   -0.89998222923839    6.26411435505949
C         6.37469388909813    1.49822881791424    3.31169274640774
C         2.53954745223654    2.03014781699233    0.61864153031844
C         7.66999997074790    1.98731956378784    2.66929756759313
C         3.72305473637392   -0.96678833377442    6.55554555918674
C         4.97410604249289   -0.09302376810068    6.57876009663022
C         1.34039574088572    2.55673975093734   -0.16733221676758
C         4.50582417729225   -2.62944889318579    1.83990569487253
C         2.15251629524417   -2.39032176748507    3.40257451963299
C         0.51795108270242   -0.23868575105305    7.60456730478573
C         8.48160484709235   -2.83449702298460    3.36464224220768
C         6.42450095987670   -2.12668411601175    6.83196884942601
C         4.07717821811007   -2.34670408162026    5.99234936784528
C         5.17765663629711    2.08809469299035    2.56437067157204
C         5.21564388554459    3.61502549432890    2.63525564878493
C         5.18292338491274   -3.01116524838697    6.80454143141871
C         6.50885449605184    4.10610479060706    1.98381550915346
C         3.77859608114876   -1.30541518658636    1.68981530420106
C         2.36429775713346    1.55763091014829    5.72904750073374
C         3.34371142619891    2.25188739901908    4.78711618061877
C         6.88973153486129   -1.73805995394239    1.93397120314165
C         7.50622842585798   -3.73437363480703    3.76663423217257
C         6.22874343195431   -3.63997717391247    3.25199205454857
C         5.89974658086086   -2.62699732024305    2.34737371853750
C        -0.26849653688165   -4.76180176697840    3.87551704223418
H        -0.46732723540335    2.72209911609053    1.90065109255930
H        -1.08259519260782    1.07136976944742    1.79010582741421
H        -0.45970447358428   -1.97606519027013    8.42292994970943
H        -0.93018593708831   -0.45599156662793    9.18352373063210
H        -2.43297786143867   -1.35786906201173    5.27073256105003
H        -1.37243019518112   -2.52360047866055    6.06522997854946
H        -2.17954988513469    0.20710523109651    7.16087409182602
H        -2.75109672898904   -1.35492879397443    7.74346597815072
H         1.54763882162119   -4.47802924665895    0.93285628891733
H        -0.08005079896296   -3.87702566508112    1.27239558658454
H         0.23076328724671   -5.61763627187783    1.24901901037387
H         5.74521401418887   -0.86223660447620    8.43475084272627
H         6.96363887106873   -0.11732298368123    7.39992619494107
H        -0.59377890309526    0.28076787027889    5.16252852241704
H        -0.12063838952025   -1.21891027630196    4.35151298751857
H         1.18341727152013    0.15842522522234    2.13771094526648
H         0.73267185894656    1.25671163520860    3.46734577938287
H         2.28544346857051   -5.67084396459908    4.39896884528795
H         2.91713960073437   -5.54112024630092    2.74664650706718
H         1.61743606732173   -6.68241414764242    3.11294541159524
H         2.05821619511090    3.08570495590784    2.43265698770106
H         8.63781801717323    3.85469316538924    2.19796074099808
H         7.75351739821981    3.86242666262666    3.72256340415014
H        -0.74058096849399    2.07136338102511   -0.46758591434402
H         0.30814571458946    0.67206501994360   -0.22217462200081
H         8.93713213699700   -1.16448293513326    2.10741123036256
H         1.03091283467693   -1.96954585259511    6.43463458147703
H         6.36216753993324    1.81771990464567    4.35713742846313
H         6.33204355658135    0.40458518804869    3.28360467923517
H         3.41481539085908    2.64349639180499    0.39976982247563
H         2.74477318924803    1.01191352074258    0.29081885354343
H         7.71837879738283    1.63354001136654    1.63778586783447
H         8.52578075891527    1.57597388108422    3.20713638052361
H         3.32863505950724   -1.07267729057457    7.57344910169410
H         5.32477848564821    0.04344951166874    5.55034470036050
H         4.75100532155596    0.88475786830424    7.01012777317833
H         1.57560258686664    2.54720373543206   -1.23202075879876
H         1.13430264523500    3.59063069311762    0.12035900954239
H         1.36733165654232   -0.30123621922378    8.28802377618805
H         0.28275743536756    0.81624010477768    7.45281826916991
H         9.48329378734079   -2.91173033912436    3.75877067815012
H         6.81387793175044   -2.01462059488397    5.81716226564435
H         7.20037250454882   -2.59413657718888    7.43867814022338
H         3.19062836520905   -2.98757745579865    5.97713973603799
H         4.42392032241511   -2.21639423941723    4.95202046593361
H         5.25790295437718    1.79064024485698    1.51401213034344
H         4.35716298867295    4.05085688784833    2.12103429134836
H         5.19878044974104    3.94994328151508    3.67390998935247
H         4.83185205795415   -3.17983240753173    7.82508065838841
H         5.42490813174875   -3.98163173747498    6.36916328142251
H         6.54884317897237    5.19539087319683    2.02984222432241
H         6.51964225500820    3.81552434869911    0.93137986730428
H         1.34311771520053    1.89146563493887    5.52806107050302
H         2.58655271317756    1.78229518638296    6.77569598060342
H         4.32666405841000    2.31774112377186    5.25703348605133
H         3.01132544710376    3.26990582032347    4.56895690672940
H         6.68233949607262   -0.99206057914664    1.18527275270845
H         7.74687567098194   -4.51539315368014    4.47163625966828
H         5.46309758856666   -4.34440265956801    3.54191894586343
H        -0.97510339526789   -3.96410976745494    3.65718583777873
H        -0.01087689775851   -4.72598493363470    4.93211593164494
H        -0.74890621846296   -5.71392595306851    3.67075369808317

