57
CSD_code = RUBTOY | q = 1 | S = 0 | Stoichiometry = C24H30N2Rh(1+) | MND = 6
Rh        1.12031736334248    7.34441741354238    5.79572979377869
N         0.35798845690156    5.48271628451407    5.32584028602405
N         0.77488090624901    7.57875185196017    3.85449734154867
C         0.08784788728366    4.44419664704200    6.11221933112468
H         0.09153074787262    4.61733518614485    7.17922671525254
C        -0.19897846091967    3.17903810190732    5.62702496705405
H        -0.41053609949211    2.37626152549291    6.31401480051284
C        -0.19733384101414    2.96948647984046    4.25608086425935
H        -0.39198481486616    1.99184046319894    3.84485290659477
C         0.04594531826073    4.04836841449101    3.42562504904295
H         0.04399880361645    3.92475920198044    2.35532949672974
C         0.30607014539901    5.29837207391710    3.98444957399779
C         0.44968264720162    6.51784074694826    3.19522645297126
C         0.11006951804664    6.50671189225179    1.74217757362917
H         0.03191530873550    7.52100615978815    1.35923394054072
H        -0.83498515372219    5.99247513868466    1.57822273154684
H         0.88188613410147    5.98137781404678    1.18021987806916
C         0.77533937204783    8.85293867159969    3.25015172299828
C         1.78501931109554    9.25824689979278    2.37205882862794
C         1.73804912972288   10.54797438459079    1.86432518473224
H         2.51954154958845   10.86873852729892    1.19180149800838
C         0.71895874057062   11.43130677214980    2.19410206813571
C        -0.27320846905711   11.00327899649063    3.06783340998728
H        -1.07365513561529   11.67708948625530    3.33459223265675
C        -0.26060893021933    9.72910871086089    3.60815701992810
C         2.90986232757092    8.34382440203206    1.98350882619812
H         3.85001757309492    8.89111642623104    1.97475754627023
H         2.74982363702196    7.95783812405019    0.97681574106503
H         3.00259226768264    7.49924395852244    2.66404593282434
C         0.68942013758298   12.80567451475109    1.60779627050942
H         1.68551561364031   13.24203702433847    1.59748516165355
H         0.02297718069053   13.45610973786362    2.16725355981469
H         0.33662640286395   12.76171239284640    0.57751163004648
C        -1.34156086911359    9.26439705279491    4.53791050256880
H        -2.03796711038661    8.60888646235663    4.01371947004093
H        -1.90018401270667   10.11032332084491    4.92836362732587
H        -0.91649469537773    8.69479014791339    5.38303960975419
C         2.84615988492619    8.65813733640142    5.79158939777475
H         3.14128184782981    8.84031069786760    4.75913586787383
C         1.77459339826129    9.37979158389056    6.28523406414010
H         1.28452090035145   10.06048766750787    5.59206483134893
C         1.56936738143460    9.72604046629549    7.74219506875313
H         2.53856860212533    9.82579694877587    8.22913257976433
H         1.07725792465616   10.69709627012433    7.80507545958049
C         0.69440309897652    8.68845148368803    8.46957986563191
H         0.92048140288307    8.69336083739123    9.54002574529178
H        -0.35568609577578    8.97127135824320    8.36379182142004
C         0.85791315836190    7.28466787811102    7.94144233738949
H        -0.01675097174887    6.65713422449697    8.12526423539047
C         2.06130790335756    6.67033022822905    7.66631295255588
H         2.09281427588787    5.58307199386101    7.61807085795782
C         3.41051304740151    7.31231601850816    7.88678500320952
H         4.12600784518522    6.54049322076804    8.17368335530463
H         3.34626979688498    8.01571040193211    8.71541301413288
C         3.92934755571978    8.00978140065534    6.61658578052272
H         4.66937560481937    8.77024664857969    6.88349047639758
H         4.44057455077477    7.27371192534267    5.99002573975577

