117
CSD_code = RUBYIX | q = 0 | S = 0 | Stoichiometry = C55H54ClNO3P2Ru | MND = 6
Ru        3.37271646343433    1.31564849235222    3.36218043060073
Cl        3.86743396520194    1.12972663076418    5.74069586689706
P         3.74802314178554   -0.98282118870081    3.62819011183003
P         3.69778573996060    3.60798459461372    3.09879818891394
O         0.55687695714569    1.56888476917217    3.38745941997635
O         1.22369134167929    1.13645649687638    0.44090522917926
O         2.96311446388419    0.99810386139532   -0.97941303551180
N         1.70204890697925    1.40997825168884    3.47601743843206
C         2.02793877570980    0.96889023079368   -2.03993884616473
C         2.42438035668816    1.08415757629889    0.26400616516353
C         3.42787254957691    1.13209798151484    1.30701256172037
C         4.76290556786681    1.10961886915613    1.16179535829544
C         5.33699361941669    1.33106621631939    2.47462703776688
C         6.66012397766289    1.61898328894131    2.52952214205125
C         7.51956104028749    1.88295963477584    3.66215963110778
C         7.20450974997604    1.49010298790542    4.96334444510290
C         8.08426422424023    1.70796920863421    6.00111069201181
C         9.30540739080366    2.33876078448243    5.78861368827099
C         9.62201203736914    2.73891050985193    4.49626792123988
C         8.75211606916899    2.50697610588447    3.45114971690132
C        10.24362689431016    2.58858754442300    6.93126256553374
C         5.41504066191927   -1.44230901656154    4.16663050037210
C         5.69005601595037   -1.66754213299330    5.51169520282627
C         6.99487644939878   -1.85311771289649    5.92889939169234
C         8.04810528736614   -1.80719729058039    5.02517086674765
C         7.76301416942777   -1.60187370148472    3.67890205628219
C         6.46545103443045   -1.41480605882454    3.24977876030755
C         9.46749103553391   -1.92850911409993    5.48415939064645
C         3.39325834456788   -2.01003522828432    2.16537028888460
C         4.18800073408462   -3.04145690283677    1.68481391146111
C         3.77900115770080   -3.77289074731331    0.58348125061495
C         2.57339617365363   -3.50448226610732   -0.05115724544088
C         1.76645584795941   -2.49108275582935    0.45724062304536
C         2.16857230812700   -1.75574444246774    1.55177810262432
C         2.15250583910791   -4.27559731241450   -1.26422720685572
C         2.67399982037609   -1.86267043590991    4.80774330546364
C         2.88702219570824   -3.22696897680589    4.99526973963877
C         2.07079201325592   -3.94763451445446    5.84245084558403
C         1.01972994073141   -3.33182818384430    6.51480480210572
C         0.80850637152070   -1.97337159853694    6.31571090089868
C         1.62355035286611   -1.24366942986307    5.47041323521269
C         0.14751722536956   -4.10830343357325    7.45205948040744
C         3.50492877182827    4.07185171497150    1.35889799708342
C         4.58252945073523    4.04920578127303    0.47616846537917
C         4.37619994767474    4.25061675224407   -0.87332746013558
C         3.09720268296274    4.46125825538295   -1.37939583577061
C         2.02441187164845    4.45820664443940   -0.49719229709819
C         2.22013318845188    4.25407765759777    0.85532378317624
C         2.89603038526986    4.67379561840956   -2.84855215347652
C         2.46114941655494    4.63277188004739    3.96008341146518
C         2.20097803688791    5.93783921226889    3.55244033258992
C         1.29813758928171    6.71377032909179    4.25206747975540
C         0.65083290121330    6.21726866096026    5.37833222846500
C         0.94076534417900    4.92382271873958    5.79752400517671
C         1.83830724278457    4.13777975300779    5.10083211813062
C        -0.34808947319178    7.04874484526878    6.12199195409531
C         5.18817316220347    4.44570479323164    3.71557403729207
C         5.83035123486772    5.47714523792055    3.04129036883470
C         6.93353825795956    6.08723410142276    3.60965439875197
C         7.39745096121232    5.70912433226120    4.86293726085530
C         6.71161217857077    4.71635447598171    5.55330264977354
C         5.62306725470648    4.08523818228531    4.98847746076724
C         8.61526694917056    6.34092271830084    5.46222211568041
H         1.40750544708836    1.86790810375455   -2.02362432537554
H         2.60808885642093    0.92009121668807   -2.95849797788346
H         1.37853995714471    0.09432465955163   -1.95149871196733
H         5.32887414374037    0.98645936639964    0.24083236867317
H         7.19098069406147    1.65935935986543    1.57362640936626
H         6.26750069732635    0.99691591119139    5.15441391948361
H         7.81915181060506    1.38241088684184    6.99722119619106
H        10.56851033105607    3.22797879338276    4.30519075924409
H         9.02418646877331    2.82058308926611    2.45187950938532
H        10.32172707712204    1.70695863862739    7.56552837263469
H        11.23638580999269    2.85285882200199    6.57302084514659
H         9.87402436650454    3.40815467212331    7.54909469377094
H         4.88506562030948   -1.66873382448959    6.23289834932922
H         7.19818213704149   -2.01429401181419    6.97795780299677
H         8.57311957303634   -1.56578549983012    2.96426966959819
H         6.26013302998741   -1.22372696130052    2.20526424597752
H         9.52172786534693   -2.35004400045066    6.48480001024664
H        10.04519353971766   -2.55158417681261    4.80414942017503
H         9.92494288929863   -0.93856200966184    5.50235395990719
H         5.12599955263860   -3.28069977804655    2.16565909086876
H         4.40984366085243   -4.56890842679298    0.21249554504024
H         0.81619247061927   -2.27609295734065   -0.01024238416822
H         1.53059274248605   -0.97009610574337    1.94015089484571
H         1.07551769817445   -4.42867487579156   -1.27016156007451
H         2.41681930712691   -3.72105445850171   -2.16541646772414
H         2.64873243390479   -5.24234239333508   -1.30428808891231
H         3.69854034552518   -3.71695247284815    4.47361040716955
H         2.24813236803391   -5.00452563637815    5.98421782541784
H        -0.00375128080533   -1.47973410682692    6.82974760005863
H         1.45069336076896   -0.18257081120233    5.34604776988388
H         0.49616618283339   -3.97628024240800    8.47689222887115
H        -0.88119065934170   -3.75839509604010    7.40200608430587
H         0.17319450331430   -5.17017868478789    7.21970619791649
H         5.57714674242088    3.85176601442622    0.85144430830219
H         5.21687938401203    4.22957787960625   -1.55265491368564
H         1.02052936096890    4.59967429894032   -0.87232111804815
H         1.37093401474146    4.21954450880607    1.52503055740641
H         3.34667446140448    5.61699479281986   -3.15760733061195
H         3.37345293411555    3.87633883885164   -3.41565610429606
H         1.83854340093573    4.69905291357308   -3.09949359608879
H         2.70151061746649    6.33795493910223    2.68124790638033
H         1.09345817421244    7.72234227735978    3.92109827555767
H         0.45734968307555    4.52961133838708    6.67987906388312
H         2.07008125924643    3.13837796798878    5.45265795574341
H        -0.22504198473808    6.92868318302684    7.19634073551635
H        -0.24647109672412    8.10119818793500    5.86914384240112
H        -1.35916048191646    6.73172062944350    5.86485111240506
H         5.47570741680066    5.80748557663455    2.07563807409261
H         7.43981283408772    6.87490502496327    3.06867581368951
H         7.04336910852538    4.42646833453615    6.53928514572650
H         5.10442003588093    3.30548138939260    5.52921303285548
H         8.43779874076018    6.60715815420929    6.50250646035438
H         9.44294420999312    5.63226355130552    5.43570288332188
H         8.90651461716146    7.23324795288543    4.91360498193803

