117
CSD_code = RUBYET | q = 0 | S = 0 | Stoichiometry = C55H54ClNO3P2Ru | MND = 6
Ru        4.53163884965852    4.69142667174155    3.58975863383490
Cl        2.70398604508729    6.13924796660202    3.00199565835283
P         3.23762509153284    2.74773433299906    3.63036886448750
P         5.52020687626493    6.76678401660355    4.02448032135340
O         5.78488600998735    3.72357924664227    1.23108610618807
O         7.79102708445364    2.58916782078225    5.64945170328131
O         7.32427897668614    2.70135690279792    3.44856686086452
N         5.24988041047411    4.25087414566389    2.12587210556032
C         8.47563275753800    1.92361125440976    3.18610622349684
C         7.07504536851528    2.97978837213256    4.75200004401626
C         5.87017231243534    3.77620611026579    4.89010395014794
C         5.20243904565582    4.00428851018586    6.03877443278966
C         4.02605795085891    4.73675373154629    5.63201388068504
C         3.00077147076878    5.19057000114659    6.38267428592868
C         2.79791494652075    5.17061279943730    7.82083706985519
C         1.48971916527542    5.30815879321093    8.29722254651508
C         1.21497371836247    5.31957396266947    9.64844859942112
C         2.23702168921397    5.21164204818907   10.58479267324190
C         3.54037422500873    5.08847929018023   10.11797092629141
C         3.82008025511884    5.06672561272072    8.76612495891977
C         1.94423565718893    5.21966339731998   12.05465845766788
C         1.77794412443585    2.60959389284331    4.70411316863850
C         0.86125961620320    3.65606990511678    4.61838434808949
C        -0.28167735015149    3.64315979425928    5.39098260200639
C        -0.54041897776226    2.59082620579714    6.26289721474252
C         0.35685250375479    1.53150443772248    6.30777438728937
C         1.50249934953051    1.52945175240797    5.53313904188202
C        -1.74656640878943    2.60973547883671    7.14988555705796
C         4.28538372488384    1.30994809004116    3.97515825768691
C         4.64293233675197    0.98719560733407    5.28372520110660
C         5.56043037573912   -0.01414813815780    5.52677252463517
C         6.15961350754993   -0.70462775660363    4.47765089742186
C         5.81343746926751   -0.36640307946340    3.17564046238478
C         4.89517895469151    0.63501220792526    2.92219494744110
C         7.16846599813005   -1.77434607224344    4.76304846590888
C         2.45530220763665    2.32041925093149    2.04287378395869
C         1.85687550220747    1.07046877289787    1.89319564901480
C         1.23424376569714    0.73936848904697    0.70814708556839
C         1.18267402578293    1.64495707553997   -0.34860953462824
C         1.76521331897672    2.89461917742082   -0.18423311734348
C         2.39466628755185    3.23502821506681    0.99969847025739
C         0.48369420559429    1.28465826104014   -1.62297216693918
C         7.33639913786637    6.84456511899275    4.14336692994767
C         7.99681975208656    7.87694048837061    4.80075489255947
C         9.37731987224208    7.93099733378739    4.79416747618220
C        10.12947220642531    6.97413188008394    4.12263175091801
C         9.46117180899975    5.96244843235344    3.44228994700966
C         8.08190751262220    5.89883582790921    3.44849246486149
C        11.62599857046564    7.01677001245739    4.14277720515840
C         5.30212066991718    8.02550437845779    2.72607349317805
C         5.39162704458700    9.38291861190018    3.01524374011618
C         5.29600885617735   10.31434199593629    1.99949855147757
C         5.12146764195785    9.91852833690536    0.67865217438599
C         5.04838124323693    8.55921788910504    0.39613771520028
C         5.14061036384860    7.62216378433792    1.40568026481447
C         4.98915958400907   10.93158552695644   -0.41608707281667
C         4.92503298167890    7.56368486228121    5.53485411903289
C         3.72136103489876    8.26345023214086    5.52143600963039
C         3.18147764578250    8.72965111586012    6.70453820112652
C         3.82271643697322    8.51256680701004    7.91782697062284
C         5.02976432993946    7.82136367001851    7.92025662939418
C         5.57031125687717    7.33317715758590    6.74791648767002
C         3.20973346747051    8.96246583676438    9.20687687756278
H         8.39653229422952    0.95141120518672    3.67723929055953
H         8.52228282764182    1.80336512414493    2.10642381337650
H         9.36858688418296    2.43293035446083    3.55780696252590
H         5.46673735232261    3.63180365401393    7.02312246909091
H         2.16809475096994    5.64542032794817    5.85147708001537
H         0.68167893688831    5.39857515517506    7.58486589885500
H         0.19288274229367    5.42487201236832    9.98725464262222
H         4.35158390146996    5.01635132477505   10.82987331479737
H         4.84583338459301    5.00479244390361    8.44343506475138
H         2.74546799272354    5.70631504886173   12.60733365108540
H         1.00845629230278    5.73411821206885   12.26252943665230
H         1.85655786867641    4.19692231814701   12.42416256061078
H         1.05970294988765    4.48088384815755    3.94576857440291
H        -0.98293818004938    4.46301803829339    5.32118425000654
H         0.15747605098787    0.69308461056319    6.96066908232864
H         2.17315665680218    0.68377809886520    5.57713890298472
H        -1.49575239419705    3.09191240021366    8.09569393637577
H        -2.55895974445212    3.16870512565993    6.69124747363038
H        -2.08769451242606    1.60026401408369    7.36767282893701
H         4.21301730219620    1.53821546267814    6.10869381795237
H         5.83595660222695   -0.25161047451319    6.54406527308640
H         6.28027715004662   -0.88130939523054    2.34745891621746
H         4.65604140965456    0.90211469821644    1.90157166583283
H         6.69854838589409   -2.60656978552086    5.28673112670417
H         7.61265564511681   -2.15016472763685    3.84441354239125
H         7.95842216572248   -1.38467987503043    5.40374872675515
H         1.89161750352094    0.36190378976780    2.71015224638414
H         0.77807613336624   -0.23427800889738    0.59631174377617
H         1.72449464252046    3.61236274163725   -0.99099203932417
H         2.82242115154274    4.22375829035377    1.11871934092780
H        -0.58331726992018    1.48968698984817   -1.52926360343604
H         0.86735739442507    1.86868690343847   -2.45587506139669
H         0.60282079608078    0.22662196089504   -1.84574224252418
H         7.43261775313166    8.63492428040876    5.32547023406576
H         9.88042356072406    8.73167370531245    5.31812192490227
H        10.02970525139607    5.21845749504031    2.90235955091217
H         7.57310977323821    5.10582260999191    2.91623526481992
H        12.00512982004483    6.31730963951816    4.88854078934198
H        12.03396230371238    6.72751372841333    3.17658501151899
H        11.98525095739184    8.01109157428430    4.39639128433324
H         5.52385450275917    9.71119755646368    4.03671440433986
H         5.35701705987999   11.36741305188608    2.23625282854439
H         4.91351363519056    8.23435909500779   -0.62574757163564
H         5.06882723972890    6.56598358494981    1.17133291759130
H         5.45140355136108   11.87431640858965   -0.13332913075527
H         5.44850834057799   10.57185783681991   -1.33417256706009
H         3.93444645127397   11.11869197690246   -0.62034216528914
H         3.20139900206462    8.41614701667155    4.58560162838947
H         2.23949814366500    9.25925487036234    6.68717074826013
H         5.53775204078904    7.64774471135492    8.85821100045700
H         6.48788174375759    6.75939873612184    6.76605740785535
H         3.97075908298662    9.32527995735791    9.89464615830630
H         2.47674743440271    9.74790426396292    9.04014038991293
H         2.70608342128579    8.11775015821142    9.67880682792126

