115
CSD_code = RUCKUW | q = 1 | S = 0 | Stoichiometry = C61H46CuN4OP2(1+) | MND = 4
Cu        0.75384136864211    4.80814375861770   15.13208139682943
P         2.58724040020453    4.64837385092436   16.41105529070260
P        -0.12463967388158    2.71971988849766   14.47326812344394
O         1.36831628082077    2.28435177340203   16.64952966997460
C         2.09303808129134   -0.15154877353294   12.57434682457704
H         1.98137716341435   -1.18520897751849   12.28303330444882
N         0.14473635401511    5.67370872608893   13.36674872902503
N        -5.22807557331541    6.84280901068248   13.37760143990310
N        -1.07146054140020    5.53667393806469   15.73870178154353
C        -3.21608055355989    6.18686743286061   14.83552850678583
C        -1.82953329317747    5.89900999681491   14.69345329348551
C        -8.39603593826908    8.87379764356757   10.83032118596004
N        -4.17098803372671    6.81599721302871   11.41529960183486
C        -1.90015818313254    6.24647782442279   12.24434359466392
C         2.67460627103615    1.95747858304136   16.42063955458607
C         0.76050035512953    5.68396773124672   12.20248232091221
H         1.81952333416220    5.46363395164744   12.21719942728507
C        -1.17230692178821    5.94771173092302   13.41264481874419
C         1.19017520915587    1.83564478711215   13.57075351493623
C        -0.56217202533863    1.40719523160858   15.66227736520550
C         3.50150408742019    3.08263549953739   16.29878128013955
C        -3.92164730640507    6.51343880684429   13.64459945485336
C        -2.94199753687712    5.70967342738370   17.18129164624393
H        -3.34064778202067    5.62204484087229   18.17915430646569
C        -8.96874530258731    7.87282059387710   10.01808849386586
H        -9.90468489044255    8.08239464257094    9.52187516558919
C        -1.50924560997071    2.75162620057110   13.30369258594923
C         3.87676823963369    5.90589009920084   16.16996919901612
C         2.26134120266762    4.82044149992362   18.19245849582487
C        -1.64156002835440    0.53688057315630   15.65038001824724
H        -2.37461778757110    0.58916648049454   14.85827827003122
C         4.84228623003896    2.91563585191258   15.99314190108426
H         5.47864964896875    3.77962250823380   15.87036767989138
C         0.38043574752286    1.32221938109714   16.69185548889681
C        -3.74994129904082    6.08469682772765   16.13062164242156
H        -4.79072461404800    6.28726825711748   16.31771137377603
C         3.78495125610874    6.72083797369854   15.04737804006938
H         2.94894671710152    6.58629364744328   14.37077215219039
C        -2.78530995282679    3.02197049029934   13.79798003807606
H        -2.94474797125839    3.04903120285963   14.86951161437345
C        -5.31544607692604    7.00891894380952   12.01922177768788
C        -1.59854711314398    5.43764032464285   16.93945878121977
H        -0.93252561605081    5.12938476027045   17.73394009940222
C         1.54358086937114    5.95459156337081   18.56539736923434
H         1.23207859362039    6.65273400022781   17.79741225462723
C        -3.28358751383076    6.51925807334115   12.39484203000217
C         4.53189684166429    0.53285412769985   15.97623255048689
H         4.93578465251987   -0.45948195705634   15.84876463381630
C         3.18259077046856    0.68192711739177   16.25960800912896
H         2.53649191869192   -0.18006326520289   16.33293253855359
C         2.67133509317640    3.91173615159248   19.15928497918506
H         3.23427742867171    3.03298910041760   18.87682470817012
C        -1.75921788311423   -0.41187127738832   16.65379779908769
H        -2.59150567768654   -1.09898785049730   16.64177756350565
C         1.04567985528032    0.50333215310268   13.19482756413480
H         0.11594392180294   -0.01344764639006   13.39082829547116
C        -6.56400175099820    7.33828631830480   11.32809794698748
C         5.35613834508688    1.63704645497486   15.84472645587839
H         6.40220731963415    1.50352080881581   15.61741915006338
C        -1.22995989376121    6.25110644066590   11.01502852600114
H        -1.78713252158161    6.48083587170894   10.12087464210084
C         0.11549615939700    5.96563731475572   10.99812258006898
H         0.67577444263304    5.96052980441975   10.07706629680280
C         0.26037288285465    0.38210181353912   17.69799197767656
H         0.99296747024115    0.33570605550482   18.48985170294734
C        -0.81832241976699   -0.48957328082974   17.66752552863697
H        -0.92271070312621   -1.23262559139446   18.44280714550677
C         4.74138080798620    7.69330605546923   14.81634111805696
H         4.67105996908884    8.32655370484542   13.94448313384625
C        -1.29394096600794    2.75555454513686   11.92881012540525
H        -0.30065116435420    2.57061561210056   11.54240637003338
C         5.78699620228832    7.85670786853565   15.71031207063066
H         6.53342999424061    8.61596298459813   15.53296688245004
C        -3.61636634073892    3.23513807106435   11.55951612580745
H        -4.43298134197736    3.42297013242888   10.87978159665774
C         2.36323744782607    4.14147248711979   20.48953548013334
H         2.68522459031766    3.43765578402871   21.24268223394143
C        -3.83508862684821    3.24502834111899   12.92799585996479
H        -4.82644323963745    3.43113127124008   13.31516707142699
C        -7.16656148239230    8.61426142377568   11.49132265222519
C        -6.35828347021452    6.90155460804971   14.27298156278772
H        -7.13432529832615    7.49823001744687   13.78832881248928
H        -6.06476475009867    7.41832274211021   15.19002230447719
C         5.87417061908194    7.05383783565038   16.83796496380714
H         6.68661176842391    7.19077149672644   17.53580606055134
C        -7.13954941242405    6.39883403885807   10.50759398309327
H        -6.65713378247159    5.44179750171297   10.37586686193730
C         3.28586069731856    0.51215339392059   12.33149455701858
H         4.10287026177307   -0.00750439972582   11.85481160120040
C         4.92150815228295    6.08017320101514   17.07328324813055
H         4.97918427896255    5.45647447953895   17.95494709805456
C         1.65191900401749    5.27106561567061   20.85833736649777
H         1.41717971291764    5.44451074141172   21.89752236388009
C         1.24342816443805    6.18098836341362   19.89479511333169
H         0.69132464020196    7.06350362443933   20.18281128275164
C        -2.34624589419066    2.99245658626093   11.06347572883575
H        -2.17513130197932    2.99054956098454    9.99758783373618
C         3.43077661929819    1.83936412741012   12.69944412088234
H         4.35963425218366    2.35659836838954   12.51188487752990
C         2.38451415489306    2.49971144284419   13.31711241665727
H         2.48689988109338    3.53515563576356   13.62442618281558
C        -6.57970815974544    9.63973410478434   12.26415838443158
H        -5.62384851003720    9.46074376793638   12.73649541056590
C        -8.42333065720139   11.10077356829408   11.76612550700365
H        -8.89572795236072   12.06378857532325   11.88610235456277
C        -9.00729740125647   10.13480625664947   10.99621517883890
H        -9.94481078383233   10.32344070227195   10.49434559743105
C        -7.19471287999123   10.85310436868832   12.39747038435923
H        -6.73492036539173   11.63220995134486   12.98699191339632
C        -6.90742051622999    5.50799106019589   14.56901489168112
H        -7.75150030659689    5.58260097481631   15.24880500243399
H        -6.14937885466433    4.87200133098575   15.02192150165081
H        -7.24818462497691    5.04149655161893   13.64715940371500
C        -8.34740282092427    6.66704157223739    9.85080027312734
H        -8.78247683519486    5.90957949540982    9.21689363714134

