45
CSD_code = RUCLAD | q = 1 | S = 0 | Stoichiometry = C18H21N2PdS3(1+) | MND = 5
Pd        5.65568822660337    3.53579056711763    4.49594986751372
S         3.46590450679161    3.88655640756387    5.25275145156863
S         4.67903941971431    3.66145877156664    2.16536572737659
S         5.78919738301230    6.34299923959786    4.09273510319658
N         7.55693276909240    3.08528287622919    4.07121458618404
N         8.43889921679125    3.35401662216568    4.92632100010025
C         7.94151876180038    2.64635219314009    2.81122025311596
C         9.11729259580198    3.08112548007596    2.19634433056528
H         9.74402546729410    3.79431054624990    2.70938253902416
C         9.43888817776762    2.60285834014704    0.94119024806101
H        10.33981243543159    2.94267990696242    0.45462610792322
C         8.61336862211480    1.68409911974765    0.30837551878350
H         8.87463248444385    1.31329172578264   -0.67038920792703
C         7.45884149952825    1.23028267506045    0.93185533231464
H         6.83442245605697    0.49710641738087    0.44558177372737
C         7.11349604974071    1.71258691495823    2.17790164224500
H         6.23540551805973    1.34210072440224    2.70734449073612
C         6.52772694901435    3.68935597904123    6.31285118938435
C         6.00442467428671    3.97062377967225    7.55711898279226
H         4.93243099610555    3.97093144385320    7.72096218511062
C         6.85540921614420    4.21927942664488    8.63275966984405
H         6.43192645170700    4.41206337977773    9.60705634620349
C         8.23380179294620    4.21959780052519    8.46776076065667
H         8.87384824169368    4.42322365562630    9.31183188150127
C         8.78511970469116    3.95693451723419    7.23093734023754
H         9.85167871140612    3.95342720417338    7.07329610504422
C         7.93943535214478    3.68837910745564    6.14957147691241
C         2.46784842026950    3.31056764502528    3.82983535815900
H         2.58574865347870    2.22503416728946    3.86178676731705
H         1.42593006722203    3.55672560119104    4.04323513653148
C         2.87526855407038    3.84907247688006    2.47129237053112
H         2.36269669175761    3.28065034449836    1.69364954923770
H         2.62286038174548    4.90106193482050    2.35010683164569
C         5.15264588726797    5.31823192328041    1.55310279491527
H         6.21683834709224    5.20629198229283    1.33541748244061
H         4.61525242067518    5.47165799290786    0.61556296123314
C         4.93073242710279    6.50591307836839    2.47589881283688
H         5.34774854204587    7.39017991094815    1.99224340166122
H         3.87691871847726    6.69079696177587    2.67343042542766
C         4.44134012984969    6.56735560584357    5.31723088425775
H         4.94680922443807    6.37389846290675    6.26596668908529
H         4.14792087570981    7.61798690113611    5.27839681277283
C         3.19448299572904    5.70872491927352    5.18997686995289
H         2.64457312838762    5.92456297814982    4.27576604731520
H         2.54431685444372    5.93697229124032    6.03668410250879

