54
CSD_code = RUCPAH | q = 0 | S = 0 | Stoichiometry = C23H25Cl2NO2Zn | MND = 5
Zn       10.62942051974632    9.98034531965454    7.28623927209631
Cl       10.83704141785570   11.91688071348514    6.18425933276745
Cl        9.33015993545525    9.18737623831844    8.85283394278971
O         9.63772275209469    8.74483877880450    5.64215799775236
O        12.42707987642745   10.16906276561942    8.68053814694948
H         8.86393471594235    9.08702585944035    5.17817442076422
H        12.55678577897321   10.96892181278687    9.20449821990493
N        12.17785701630540    8.84769715785465    6.39577168637217
C        10.23371454020764    5.96922149277888    6.58373214558452
H        11.31472134311089    5.95970262616266    6.72704051933155
H         9.81416180067103    5.13989769925980    7.14738492018924
H         9.84819446863112    6.89543307524494    7.00088835402639
C         9.90396078117295    5.82562438162507    5.12977088602573
C         9.42999365664520    4.60044509253529    4.67458900824658
H         9.29372755706477    3.79934500679177    5.38644680493329
C         9.13029450800112    4.38366895614744    3.34303575569958
H         8.76199802227738    3.42175128807178    3.01955831288040
C         9.30608338034487    5.40825745652211    2.43261206850868
H         9.07918607532817    5.25912569775804    1.38781957049508
C         9.77144143939677    6.63704319439645    2.86593664543498
H         9.90030999628593    7.42120134199749    2.13763031049484
C        10.07339381891279    6.86387732655824    4.20330742470605
C        10.55631006165978    8.23524438779455    4.67884114586719
C        10.71653662565000    9.28270654477571    3.56540557989285
H         9.77124452139988    9.43764508203371    3.04860014202313
H        11.47883080844303    8.98965088591869    2.84905747112725
H        11.01160397572432   10.22507035959167    4.02678006564041
C        11.92540112872911    8.11501607406647    5.32018205705602
C        12.90632517836037    7.33009532261291    4.72560910091384
H        12.66882201544808    6.73758495697564    3.85645649938850
C        14.17487815127321    7.32068591138716    5.27846589045136
H        14.95600763507173    6.71423790310920    4.84572843410505
C        14.43139529531592    8.10950043773957    6.38611528978071
H        15.40907396931148    8.13810786818518    6.84023687516866
C        13.39510167234166    8.86604673419582    6.92054745568164
C        13.66540287443878    9.82375640415740    8.06504274203591
C        14.24740797985759   11.08787796650371    7.41239082074731
H        13.49599495676340   11.49692534874186    6.73707455959925
H        15.14564908307100   10.86531636927777    6.84337617064514
H        14.47135446849366   11.83870645628176    8.16787666523351
C        14.57367437286164    9.16275660600658    9.10327738898035
C        15.80348220030052    9.71892346013874    9.43411900070039
H        16.14715481894946   10.61376657502172    8.94106837204358
C        16.61792510731613    9.14336787802600   10.39312021760508
H        17.56863422157773    9.59613959711565   10.63072307033514
C        16.20420348605992    7.99591473846307   11.04256786697827
H        16.82740886261670    7.53938610551826   11.79672689323767
C        14.98331977840684    7.43546062409598   10.71818387198828
H        14.66024881308378    6.53760885705418   11.22469241077026
C        14.15236743385973    7.99480017747833    9.75404471997424
C        12.85815917783684    7.30927041597664    9.44043086760997
H        12.92857092146351    6.79161606149723    8.48328401441657
H        12.02871461054772    8.00878222740050    9.38280746953956
H        12.62991239291643    6.57058838105732   10.20444112451118

