41
CSD_code = RUCPEL | q = 0 | S = 0 | Stoichiometry = C14H18Cl2N2O4Pd | MND = 4
Pd        3.53380418806972   -0.00000000000000    0.00117761212157
Cl        1.46607827104215   -0.00000000000001   -0.97761279794976
O         2.16937524861840   -2.59597975704591    3.32891335380924
H         2.95934817270846   -2.96458842759514    3.74112310161209
N         3.53348523402421   -1.99757191339372   -0.00008735761754
C         3.05155991747292   -2.66973822453442    1.04716104539860
C         3.02265783074456   -4.05700018356727    1.07448061877873
H         2.59361400661083   -4.55900457506218    1.92710966228303
C         3.53369702786855   -4.76298723154845   -0.00003163742738
H         3.53373551055102   -5.84199650695196   -0.00001974225937
C         2.54110141053656   -1.84539793193576    2.20564681885854
H         3.32475757539923   -1.10443049015927    2.46323876369219
H         1.63272813921023   -1.31186357511269    1.88029673465264
Cl        5.60234900503553    0.00000000000002    0.97795870918167
O         4.89805611223057   -2.59598711832583   -3.32894399268123
O         4.89805611223055    2.59598711832585   -3.32894399268123
O         2.16937524861837    2.59597975704591    3.32891335380923
H         4.10813419046997   -2.96461056119243   -3.74121426349818
H         4.10813419046996    2.96461056119242   -3.74121426349820
H         2.95934817270842    2.96458842759516    3.74112310161208
N         3.53348523402421    1.99757191339372   -0.00008735761754
C         4.01563284012855   -2.66971632466904   -1.04728497870251
C         4.01563284012855    2.66971632466904   -1.04728497870252
C         3.05155991747293    2.66973822453442    1.04716104539860
C         4.04470822656229   -4.05698676575696   -1.07454949142046
C         4.04470822656229    4.05698676575696   -1.07454949142045
C         3.02265783074458    4.05700018356728    1.07448061877873
H         4.47383708298811   -4.55898918931073   -1.92714788442058
H         4.47383708298811    4.55898918931074   -1.92714788442058
H         2.59361400661085    4.55900457506219    1.92710966228303
C         3.53369702786856    4.76298723154845   -0.00003163742738
H         3.53373551055102    5.84199650695195   -0.00001974225937
C         4.52620693028320   -1.84539662551643   -2.20573570761225
C         4.52620693028320    1.84539662551643   -2.20573570761225
C         2.54110141053657    1.84539793193576    2.20564681885853
H         3.74255944347934   -1.10444807118955   -2.46340171509965
H         3.74255944347935    1.10444807118954   -2.46340171509965
H         3.32475757539926    1.10443049015929    2.46323876369221
H         5.43453936803930   -1.31183883216895   -1.88031509002259
H         5.43453936803930    1.31183883216897   -1.88031509002261
H         1.63272813921026    1.31186357511267    1.88029673465262

