32
CSD_code = RUCPIP | q = 0 | S = 0 | Stoichiometry = C9H15Cl2NO3PtS | MND = 4
Pt        2.49658566634272    0.70504402942763    2.45661920382444
Cl        0.60526388328309   -0.54134354850827    2.53585152067976
Cl        3.85317439905112   -1.09994086237711    2.63416958946149
S         4.44299338586775    1.89525167730598    2.28992438167468
N         1.32192952747330    2.39951805537606    2.37820199281115
O         4.26694025234600    3.33117345670574    2.03996032989384
O         0.54147807073161    2.72859496286898    5.87460322840715
H         0.48566609197239    2.13015744049377    6.62634377743540
O         2.92309020587934    3.47481323342110   -0.40689247316780
H         3.50881747964024    3.63393019829925    0.35662855618159
C         5.56083882621653    1.27839038473962    0.99978784343588
H         5.08027192252938    1.42947359455334    0.03837104412039
H         5.71515691713335    0.22146659864129    1.18507154681747
H         6.48769949452342    1.83801421660710    1.04317297738603
C         5.55329553887417    1.72630776945591    3.71645440802668
H         6.48577904159339    2.23599052510591    3.50526660870244
H         5.70106472723453    0.66402317518609    3.87644458727384
H         5.06710681108250    2.17878326741649    4.57430609415213
C         1.89675670444426    2.61107766979130    0.00260945888066
H         2.26708715438123    1.57775637050309    0.16943002822268
H         1.17603265437177    2.58208191294332   -0.82017112539842
C         1.21636083305787    3.10957176601952    1.25474833505312
C         0.54350051682271    4.32356567458083    1.22310450824345
H         0.50586285156258    4.87484678479827    0.29748791137558
C        -0.04744716533551    4.79976062882865    2.37919100465439
H        -0.57209139954507    5.74252972274068    2.38247710068184
C         0.04008212403024    4.03712789218845    3.53048788266627
H        -0.40234634672134    4.35024962784432    4.46116161681647
C         0.73488993081552    2.83790852222627    3.49635001576885
C         0.83046684626163    1.97446464946437    4.72277330880884
H         0.11776520315445    1.14525123869247    4.59456446624187
H         1.84632785095785    1.53475936467522    4.77770027086710

