90
CSD_code = RUDBAU | q = 0 | S = 0 | Stoichiometry = C37H45FeI2N5 | MND = 5
C         9.45025970843350   11.07224291532824   -0.44530463491103
C        10.69339544442011   10.61774352735194   -0.00770110349277
C        11.41532413763369    9.77317385437150   -0.84162214630073
H        12.37912541330013    9.40915423019058   -0.52246182816102
C        10.91976329661720    9.40227855326004   -2.07442763730244
H        11.49342635612313    8.74621868738142   -2.71213294119446
C         9.69220435624626    9.87379575942806   -2.49812427129058
H         9.31929552696582    9.58219494186973   -3.46654221873420
C         8.93327038971574   10.71438011891332   -1.69718956130023
C        11.27595760888814   11.05276932228181    1.31310525479232
H        10.51203604461485   11.58535871567934    1.88348309086200
C        12.44068963230493   12.01772981661824    1.07860633893357
H        13.23486680807347   11.53435510286853    0.51394834987196
H        12.84417881408217   12.34756393874122    2.03291854217562
H        12.10952832390677   12.89329690694151    0.52232273169475
C        11.72221497274458    9.84927522656529    2.14204412676250
H        10.92262599964142    9.11358491249450    2.18972628512093
H        11.95878903889844   10.16483491949148    3.15492189608700
H        12.60156800146952    9.37454820279771    1.71456425409682
C         7.60616251091732   11.23622855967655   -2.20151529127505
H         7.03522680981527   11.63764640873450   -1.35815977573829
C         6.75786257425210   10.13725683879349   -2.84485232677163
H         7.16561684518308    9.83561883790511   -3.80565134689835
H         5.74765595517674   10.50559192251650   -3.01002091811599
H         6.70705258051235    9.26594787993472   -2.19897396893376
C         7.83827646953653   12.36158142155888   -3.21588870460646
H         8.37542947163121   13.19630220809012   -2.77186204174931
H         6.88469043333623   12.72883976377829   -3.58944599487221
H         8.41965927470847   11.99260494093483   -4.05792444147963
C         7.85425651917334   11.74274954746520    1.35899470887840
C         8.67715054034238   13.32568310531398    0.01731330743940
H         9.31669084974318   13.73087595417439   -0.73943506506216
C         7.76251207217841   13.92958472357117    0.80321811005112
H         7.46694961113777   14.95352368324089    0.82666541462485
C         6.23811242448209   12.95961356606015    2.57243926479516
C         5.52174262139458   14.05461783606748    3.04622446085351
C         4.59014204887603   13.80192899070293    4.04763341077504
H         4.01586992701225   14.62809789997672    4.43759194409296
C         4.39353525616282   12.53893478755936    4.59598549766897
C         5.15433280970408   11.50344590457321    4.06143355441457
C         6.07110671260786    9.34343281666022    3.81629819719115
C         4.43836860421012    9.46289964926100    5.37196707393556
H         3.69354129256721    9.88621856379369    6.00630456436326
C         4.85138411137058    8.18226099526506    5.28163618459885
H         4.54453957164041    7.31454786400663    5.82823525936518
C         6.31793660619991    6.85455620136653    3.87823971270541
C         7.54826381070210    6.38579665586633    4.33659380293049
C         7.95699998210474    5.11792836484642    3.94253970205584
H         8.90538914727786    4.73570583773148    4.28568276891847
C         7.16211719944271    4.33934404738742    3.12716411120288
H         7.49256170710744    3.35481510852847    2.83119685921481
C         5.94018679801288    4.81509530468568    2.69209233683990
H         5.32576560227971    4.19455589582339    2.06016091670410
C         5.49307817387084    6.07703484099327    3.05500975399842
C         8.41046081809928    7.20062916675768    5.26700806374066
H         7.99793231222642    8.20857532414631    5.34689963313674
C         9.83580857095341    7.32130045793845    4.72980431694204
H        10.36469234961652    6.37346727706696    4.78636549909714
H        10.38773278581812    8.05923060890856    5.30622256158843
H         9.81515334806137    7.64242364845656    3.69085076884013
C         8.40380100711027    6.58196032984303    6.66684800683860
H         7.39005896619766    6.53283682306499    7.06132549530913
H         9.00696242467557    7.18661316075635    7.33982150884315
H         8.81165830186143    5.57383266830959    6.64581864422171
C         4.13861338235478    6.55781871736146    2.58369528608461
H         4.07447103805153    7.64153075538836    2.72405557067338
C         3.90956832969039    6.27609687822761    1.09727632967305
H         4.75810661503431    6.61214148868859    0.50909150784514
H         3.02153828157593    6.80505665866098    0.75821295481788
H         3.75766989024895    5.21579466982205    0.91564367851300
C         3.03056613067667    5.89111280868894    3.40638330990662
H         3.08299682453635    4.81008562240715    3.29824867897459
H         2.05569272788208    6.22577492698821    3.05793718900249
H         3.11647736320687    6.13158936758009    4.46339809606379
C         5.70855718392778   15.46070353582246    2.56506604012398
H         5.04731001078583   16.12435009092202    3.11683781421720
H         5.46708991527727   15.54957677986981    1.50621384191767
H         6.73246429532011   15.79460604559108    2.72811900868655
C         3.41380460517297   12.37783709019428    5.71744148617376
H         2.97801230022993   13.34377712925528    5.96067518265612
H         3.90544830940959   11.99614378738867    6.61133448635663
H         2.60391621154030   11.70421268253128    5.43874217437165
N         8.70870694112923   11.99426868560984    0.34935922143902
N         7.24710042032859   12.94964633994977    1.61970769406353
N         6.02833650242241   11.70673726868520    3.04548083757072
N         5.18177697668621   10.17406660043172    4.45865121778198
N         5.82785272616981    8.11833241206298    4.31909427484429
Fe        7.20932913114582   10.35494280248796    2.58301325437490
I         7.10240326384622    8.61880154032957    0.81198436222747
I         8.88234293342385   10.96435925973747    4.38634642734175

