107
CSD_code = RUDCAV | q = 0 | S = 0 | Stoichiometry = C48H52FeN6 | MND = 6
Fe        5.48445835409225   -0.73344115970790   14.47185064533435
N         3.74782642732805   -0.77417615256160   17.00997457459903
N         6.25166550027622    0.54176322743289   12.15999210734994
N         3.28143913655842    0.60967916158844   15.42962783728648
N         4.53734518009464   -2.08041025377836   13.43018306831378
N         7.83826803725627   -0.88113980789827   12.46462286931794
N         4.64440749418334    0.69591298054299   13.68280008376447
C         4.39499561114046   -1.75070330843463   17.80752772060103
C         9.49748541440291   -1.61783509041810   14.08534689922053
C         4.11421816360405   -3.10345237239880   17.59287688670633
C         7.23626304440327   -2.52466931691586   16.22298127664114
H         7.53743061630466   -1.66906964794699   16.80327268825654
C         3.60278722452252   -1.68978840359186   12.47204332097121
C         2.80758245914099    2.23443526139727   13.60890129040905
H         1.91698222658498    2.63606709708525   14.06445153685162
C         2.68781658317598   -0.00718392821489   17.43213730200423
H         2.24489052088845   -0.13342819151380   18.40028558986105
C         2.38505648389820    0.85931821942398   16.43969802776342
H         1.62985133634848    1.61559066070390   16.38026757545535
C         4.95064249053852   -3.30566637632143   13.52162432775746
H         4.52268633866508   -4.09458595487427   12.90404316527959
C         5.28872770443914   -1.32580244997258   18.79105208301296
C         5.94594969540733   -3.52589646687836   14.50829664463426
C         3.52769329151777    1.22769768694078   14.22510070467009
C         5.08727158100377    1.19033837266558   12.50796923363636
C         9.47096427079975   -0.24787531126241   14.72100629123922
H         8.42079275974066    0.05218581425293   14.79220220833216
C         7.76172776961610   -3.75916549196745   16.54302963294911
H         8.46817310155016   -3.85093830738943   17.35836942412326
C         3.95293026538021   -1.63012736485755   11.12452994421135
H         4.93582885966826   -1.96612384566684   10.82437783579802
C         1.67140225159403   -3.27240227151318   17.10273508544472
H         0.93350925394282   -3.59200916292393   16.36923648649202
H         1.49405520912191   -2.22454867498488   17.32936307253403
H         1.52334652893002   -3.85029947131241   18.01337625008826
C         8.69247604197363   -1.89478475563613   12.97395782820079
C         4.42459229413981    2.19056401920448   11.82328146744739
H         4.79720282132925    2.55804038258369   10.88104439623922
C         7.39911442418543   -4.89855798455132   15.82979172676959
H         7.82674752824830   -5.85978047384823   16.07983492621697
C         7.94653299406473   -3.40114745559471   11.06304495011576
H         7.19864721075454   -2.61111893942678   10.94318724172426
C         7.11344138946100    0.69483208226218   11.10353162705919
H         6.96166471527185    1.40863744145501   10.32064159086804
C         5.55246773916967    0.14105718359101   19.04294095952977
H         4.79948732192740    0.73556205276951   18.51838248636206
C        10.06413351774986   -0.21316960330091   16.12810286219175
H         9.63615402215736   -0.99764086565028   16.74403811474469
H         9.83617667474885    0.74501662928942   16.58967178046678
H        11.14674926270443   -0.32657111079162   16.10439668277984
C         8.10608397782876   -0.19991104414846   11.29912564284360
H         8.98107500132027   -0.39893966647556   10.71408881266837
C         6.48240936361177   -4.78297713234713   14.81405302433480
H         6.16949004870261   -5.65716007818608   14.25371933741560
C         3.08682866485839   -3.50264162801448   16.55762042069790
H         3.24381160818317   -2.86075973301218   15.68400627170321
C        10.34174944893916   -2.61942943551731   14.54071787142679
H        10.97659650676072   -2.44152860969217   15.39252384536153
C         6.31654748705872   -2.33262836146278   15.18765665644578
C         4.14062213895309   -0.41260418385969   15.77076474947275
C         4.77564458257812   -4.03699994352677   18.37543366262173
H         4.58563164047558   -5.08886177514711   18.24049446117688
C         1.44876949436050   -0.76713666507150   11.92424967758975
H         0.46822009425782   -0.43751431735853   12.23648628512863
C         2.33261225611485   -1.26625604477245   12.86014735204564
H         2.05377250879526   -1.33583461087349   13.90159796706572
C         5.45197781438860    0.48143977032228   20.53242515615611
H         4.51277002845146    0.11989399579127   20.94693153241098
H         5.49654824847579    1.55999446000479   20.66887964441225
H         6.26871426263997    0.03796047418089   21.09538924279154
C         7.20444595157158   -4.73579384142805   11.14015272094360
H         7.89317380719934   -5.57359445160785   11.06788586198684
H         6.49275903369371   -4.81404415633484   10.31997311284454
H         6.66842875948121   -4.80861880741694   12.08059518553533
C         3.06629937630398   -1.12292959354691   10.19434186326195
H         3.35432676438345   -1.06894704047414    9.15409033030443
C        10.23054398981728    0.75293468223369   13.84072144535163
H        11.26343480392359    0.43150996364720   13.71209088613795
H        10.23141747255086    1.73296481313045   14.31259013380336
H         9.77818492178142    0.85203430286430   12.85789455738736
C         5.94526596976105   -2.29620527530860   19.53680138691206
H         6.66236812423424   -2.00102983755886   20.28704754929318
C         1.81475362131796   -0.68300123756447   10.59081830023973
H         1.12584045701303   -0.28007261630559    9.86362068728734
C         6.91777817603029    0.53659009607101   18.47897225258633
H         7.70780224647738   -0.06322904074020   18.92461767769042
H         7.11864955459184    1.58597683205475   18.68601597896310
H         6.92077788597449    0.38473128529360   17.40124965027244
C         6.68711030866859   -0.44194561116302   13.01937828717112
C         8.74981187006056   -3.12459471094571   12.31431479410810
C         3.26182905739599    2.71188887213986   12.38423203999120
H         2.71892118780611    3.49013364888489   11.87298833368515
C         3.21394936959990   -4.95441035808621   16.10263027360023
H         4.24251565169917   -5.18089202605591   15.83833812450274
H         2.58776414329474   -5.11745618495984   15.22733808346181
H         2.88450521986783   -5.63914018720782   16.88154148190325
C        10.38887335335732   -3.85188075352757   13.91741427949793
H        11.04846314868418   -4.62028296322734   14.29322744941838
C         5.69488396654433   -3.63676248664796   19.32748830815367
H         6.21469743015603   -4.37961784712010   19.91475079655727
C         9.60726174964270   -4.09868470661979   12.80852714301659
H         9.66596968310723   -5.05843708534892   12.31951080398976
C         8.86640921809806   -3.39077631576075    9.83720440068351
H         9.38643280645396   -2.44064757413925    9.74107174082368
H         8.28823962581770   -3.55960149619717    8.93087584653052
H         9.61401062190892   -4.17623128549030    9.92076316775281
H         6.35586635096964    0.01686922251397   15.32921111895375

