62
CSD_code = RUDMAF | q = 0 | S = 0 | Stoichiometry = C28H30NO2Rh | MND = 6
Rh        5.19681001528456    8.91618063128781    7.96350415029978
O         6.80183047400727   10.11787581120618    7.99619268121655
O         3.18216066662668    9.54404351906621    0.18457488239375
N         5.53918530382964    8.60901355364484    5.96291588547950
C         7.45417900375883   10.64999526802639    7.03927461215318
C         8.47941540592234   11.59130062163811    7.39100748720060
H         8.62659511823132   11.77409760963929    8.44549003790434
C         9.22544247403864   12.21219726032361    6.45169355147378
H         9.99986745397043   12.91035234176835    6.73912449837410
C         9.00212741191741   11.99078693038197    5.06567767651197
C         8.00318604193744   11.06979736782726    4.66307046605130
C         7.26326866292760   10.34665304962791    5.66525489558621
C         6.41028189068623    9.29042591872845    5.27562622417662
H         6.52408108193559    8.99209422659868    4.23514151559596
C         4.92934642315128    7.51303289349955    5.18895510787632
H         4.01771391187270    7.20099033009624    5.70620344006733
C         5.89599660676102    6.32624297926368    5.18954368219100
H         6.17758013390423    6.10611907872799    6.21895157141230
H         6.80167727272043    6.56323913305619    4.63511941210380
H         5.42718990695967    5.44495677534806    4.75878210200786
C         4.50021587377085    7.98404566077794    3.81229731199513
C         3.68699413452338    9.11538562700609    3.73434613758949
H         3.39857545800124    9.62094917470913    4.64535371378112
C         3.26805435872423    9.60851734355688    2.52088885204697
H         2.64567995655266   10.48698220904894    2.45951838467561
C         3.64590496975518    8.97763764918315    1.33324942963629
C         4.44695505495147    7.84609545870580    1.40102279743988
H         4.75860240277610    7.32939139543479    0.50654962604108
C         4.86671063029731    7.36137094351858    2.63124638729819
H         5.49262981223792    6.48277765305376    2.64561525016434
C         3.52600471487858    8.95156887591145   -1.04301352691940
H         3.05034948006710    9.56215260159222   -1.80882435871350
H         3.15029843500234    7.92590691265756   -1.11387162444739
H         4.60913706290416    8.95350215045667   -1.20177718001942
C         9.74640218167765   12.69213149116833    4.10479440054903
H        10.50716786651189   13.38157563821566    4.44366116696646
C         9.51099544014826   12.52032509281736    2.76560027252327
H        10.08596396886756   13.06280274971903    2.02980763277340
C         8.50090612936600   11.64781549365825    2.35934337938280
H         8.28932435152603   11.52941451413182    1.30612528292145
C         7.76424579887343   10.94637416628383    3.28144166142292
H         6.97099784349397   10.31079213623901    2.91707077933653
C         4.59727970500728    9.81142790814771    9.82309079035905
H         5.01463767531228   10.81741577212907    9.81417810308726
C         5.46836983685022    8.76254648041758   10.07460580393028
H         6.50971678331161    9.00997047713777   10.27799815869698
C         5.05207658620174    7.40117287932385   10.57903227437530
H         4.79450287214919    7.46920040181355   11.64156276834876
H         5.91119197487592    6.73125356206465   10.49632747075148
C         3.87686819894212    6.81079416342904    9.78129881998855
H         3.95173168566371    5.72138335733762    9.79587194332239
H         2.92601410691106    7.07172144059636   10.24704345668312
C         3.87379454988859    7.28610358298380    8.34089955132606
H         4.03869399753492    6.47942691317056    7.62961899928093
C         3.15308585807669    8.40212060007418    7.90868868672758
H         2.76868949089907    8.40107500875538    6.88798060486165
C         2.34098975924382    9.30126641488894    8.81648664036170
H         1.41223812735562    8.79085457656576    9.09580617909819
H         2.06075005682311   10.18884063227025    8.24354383622594
C         3.10767349383538    9.74243871751960   10.07560731208967
H         2.74968771282922   10.72765051992577   10.38038537456496
H         2.91455634292774    9.05922635383795   10.90322356940736

