43
CSD_code = RUDTAM | q = 0 | S = 0 | Stoichiometry = C10H16N2O12S2Zn | MND = 6
Zn        1.23830469548549    6.98635560233967    4.53493721515931
S         5.76047240441361    9.78907696950012   -0.36335379737390
O         1.46969073376803    7.38115233232071    2.70719325608833
O         5.57257459135519   10.70551445476722    0.75620232003285
O         7.00423820863020    9.06179676325177   -0.37533720848554
O         5.23198741064061   10.23042069770779   -1.63093853366351
O        -0.57693458960276    6.07087512208020    3.91599714819067
O         0.31104360865995    8.89491022812861    4.75930175036184
C         3.83129337252315    7.41976157732029    2.26262061278987
H         4.06346233491609    6.88177789126653    3.16917731947350
C         2.47939160814125    7.70532854487799    1.98391044461064
N         2.21619879753394    8.38608122198116    0.83940059970544
C         3.18489900487336    8.84499333306163    0.00699644356163
H         2.89506060436292    9.42213503772065   -0.85610277989521
C         4.49620200891903    8.60620724895116    0.27914698747715
C         4.81936713768385    7.88065474565229    1.42836978460581
H         5.86657489697584    7.72293200841698    1.63580629744069
H         1.23982696215427    8.58284166920038    0.64264938263833
H        -0.47280567545483    5.86028296517259    2.98148510080077
H        -0.84254147758819    5.25951682343601    4.36413189698940
H        -0.11098507360314    9.17352853875776    3.93996388558188
H        -0.34277405751521    8.97228435122337    5.46320526545235
S        -3.28319397709784    4.18303037094722    9.43324378092198
O         1.00715718297732    6.59170497747383    6.36262532023640
O        -3.09432872423378    3.26564155206168    8.31463354472918
O        -4.52751408769612    4.90940068954161    9.44406991602527
O        -2.75484273751207    3.74329079013201   10.70141404635984
O         3.05410217706130    7.90138200394898    5.15311678955421
O         2.16578635879705    5.07783202453798    4.31080826169653
C        -1.35464832844058    6.55157946236882    6.80597557663867
H        -1.58669240606963    7.08877628313698    5.89892075245225
C        -0.00264444564141    6.26747772402972    7.08573150995780
N         0.26045507963974    5.58814167987360    8.23110423962155
C        -0.70835164284996    5.12902658051825    9.06328172944207
H        -0.41851510597177    4.55304171580608    9.92716212695681
C        -2.01969640609752    5.36625083173122    8.79004960960412
C        -2.34283586853195    6.09042704045963    7.63995467075315
H        -3.39006359041812    6.24690159692269    7.43166220112802
H         1.23687696046897    5.39247754595671    8.42869475235196
H         2.95098299047430    8.11148796443674    6.08783379191811
H         3.32020551116078    8.71239111826287    4.70478612692657
H         2.58990543373829    4.80006596887072    5.12932205608878
H         2.81780811897357    5.00004395184862    3.60524580509519

