42
CSD_code = RUDVIW | q = 0 | S = 0 | Stoichiometry = C19H14CdN6S2 | MND = 5
C         3.97175657127073   13.37661568482049    3.27633933337067
H         3.74967864973890   14.14969453843583    3.99708302719363
C         6.21957873254752   12.99230839053924    4.29846893866748
H         6.02099064376354   13.74941659714505    5.04244630199010
C         5.21673815468059   12.72101380455321    3.32779677747427
C         5.45425032955962   11.74115317371554    2.34241004037944
C         3.04154464495861   13.02843284589512    2.33120884987689
H         2.09145966007807   13.52840084502939    2.30277529171451
C         3.36473372375111   12.01652894398911    1.40513333051021
C         1.14744834732837   11.61987010355372    0.27408615854332
C         0.21056512818462   12.30696870352605    1.19415150664539
H        -0.80532673169986   12.03280263106396    0.92155360107556
H         0.29660105244267   13.39130235942619    1.13013665947446
H         0.39169168639587   11.98711386460991    2.22035697435141
C         0.83241887187881   10.86745981372475   -0.82996352681443
H        -0.14621142954140   10.70199430113941   -1.23224281982044
C         2.04821357718253   10.33740183798535   -1.30850502690653
C         2.27926870743492    9.45160229828489   -2.47539040227922
H         3.31438378014051    9.10830896222584   -2.47693965946594
H         2.07691308347260    9.98774340514274   -3.40213524394648
H         1.61155012312090    8.59334006643508   -2.42976525271685
C         2.89070680793163    9.16242237216322    2.45585470392963
C         6.78643703447112    8.13316339667690   -1.65349879256331
C         7.96668732584980    9.33599124222559    1.43827644571368
H         8.06196236135303    8.56738498120766    0.68085613165569
C         6.68332644589297   10.99718721054453    2.35005109429291
C         7.39384494787739   12.31297572643506    4.29390860427573
H         8.15456863228648   12.52127069724150    5.03169124031898
C         7.65535248837949   11.29637279756628    3.33108309098410
C         8.84459253812909   10.54609054280954    3.30653057695689
H         9.61501725599569   10.74523731692979    4.03762196414219
C         9.00161427517820    9.56976835908616    2.35388169359570
H         9.90130887340983    8.97738599316436    2.30372444704079
Cd        4.82335750150089    9.49355910978773    0.25589197861543
N         6.84771885730978   10.02490930326015    1.43639196537033
N         4.55561655583285   11.44662567177915    1.40071626881147
N         3.03948249440694   10.75343374932337   -0.54698610232821
N         3.61258650951888    8.61358628903536    1.70383196032288
N         5.75508427997959    8.57468115149909   -1.28158101680983
N         2.50842455787515   11.54301290663397    0.41762859128480
S         1.92702095870633    9.92145732469799    3.46006741779826
S         8.14474199139483    7.54341068674078   -2.19514712273678

