79
CSD_code = RUDXOE | q = 0 | S = 0 | Stoichiometry = C30H42Cl2CrN4 | MND = 6
C         4.75614311751433   10.47367278176782    1.85541782425962
H         4.95805745214264   11.22032622516541    1.09769993677375
C         4.07267620741983    9.30805967165279    1.62512018903844
H         3.66711886810958    9.02108523456480    0.66309797257963
C         5.71870301549364   11.89785890447240    3.45363254417950
C         4.88138727554887   12.98404800296171    3.75608433540430
C         5.45622482743808   14.17317829860524    4.18263227228451
H         4.82275923713938   15.01368897102376    4.42081221773393
C         6.82638390415288   14.30689279239875    4.29597593486273
H         7.25562548018036   15.23738276857885    4.63976649491066
C         7.64454896033776   13.25710071366354    3.92721324358896
H         8.71657251503114   13.38065553290970    3.96632492925889
C         7.11158802795016   12.05260306227860    3.48765139732126
C         3.38391996756870   12.90909223874282    3.56742253289251
H         3.10091549025940   11.87000573061725    3.38367784369207
C         2.98195101608673   13.73889780344935    2.34418167753288
H         3.49371689553030   13.38305332943188    1.45231330552335
H         3.23683972421437   14.78680607392415    2.48854158910867
H         1.90954918871341   13.66356469275848    2.17887798474602
C         2.62277470807824   13.37620951551135    4.80782149507704
H         2.92828608960071   12.79263043109345    5.67194631828338
H         1.55696301466167   13.22164183126438    4.65972656756310
H         2.79125794014508   14.43124835028856    5.01030616671314
C         8.03923627024318   10.96815058752091    2.99336701912006
H         7.44680489126911   10.09200131285147    2.71971156945539
C         8.77557455413542   11.44712755721067    1.73894324793331
H         8.06496341515918   11.74805224547192    0.97172090023299
H         9.39217428783877   10.64406660196159    1.34207528871137
H         9.41754724458963   12.29659939847211    1.96173025533589
C         9.03199090796698   10.53860173311609    4.07390310709399
H         8.49644916398450   10.17377076289158    4.94741553537363
H         9.67812370973842   11.36170770202302    4.37172828218168
H         9.65268372840030    9.72902456190878    3.69883011389582
C         3.07046359111539    7.40719318558872    2.57237991712427
C         1.67756669782554    7.56842007299434    2.65825631976287
C         0.87231994011468    6.43807266013431    2.64315186911127
H        -0.19883633359194    6.54841041995469    2.71223113138940
C         1.41413044714850    5.17269918864416    2.52838433339771
H         0.77149830679098    4.30365502746964    2.52996970022797
C         2.77840659425040    5.02938904192158    2.36771924951170
H         3.19501860928583    4.04384253205142    2.22133117296797
C         3.62018335386394    6.13364519979357    2.36882318866274
C         1.03580287422893    8.93621958703040    2.69985601998244
H         1.81060704867784    9.68693338017444    2.87285722287329
C         0.37586477716513    9.22897890985131    1.34855933395728
H         1.10529699789153    9.17678413424016    0.54292759945000
H        -0.05963479243467   10.22567750545805    1.35434582529689
H        -0.41255561513731    8.50825044953996    1.14148883589941
C         0.01681029003682    9.06389759534170    3.83186493978376
H         0.48820964998219    8.83339629625346    4.78311615180007
H        -0.83440951217678    8.40363587650333    3.68401040147990
H        -0.34818017514661   10.08696023773038    3.87794892405791
C         5.08891485822329    5.94776790667648    2.06925862132298
H         5.59203028818261    6.91428665658091    2.14830197635523
C         5.26014271583570    5.44588421845706    0.63231726097574
H         4.78207239320057    6.12741874735156   -0.06844826325839
H         4.81678669093873    4.46046482024153    0.50651933267096
H         6.31725940531892    5.38252839495487    0.38518479373554
C         5.75822467761725    4.99378309336997    3.05875651457968
H         5.67323059876930    5.38573072578833    4.06960024047521
H         6.81525777899819    4.90493467212951    2.82156168270432
H         5.31099551253836    4.00262871618532    3.02302012211129
Cl        6.68066386453465    8.12192617674602    4.00155605493194
Cl        2.91260276345884   10.05706105913719    5.22300712729468
Cr        4.75708076328936    9.18471252826187    4.29860353425704
N         5.14492945942831   10.64854623669204    3.12312767503200
N         3.91009029834760    8.53610278677001    2.70502952482855
N         5.66325736413483   10.06935616076851    5.80491815500076
C         6.16937288436970   10.83844161638514    6.49310321981944
C         6.80466067006416   11.81608334181419    7.32468070215286
H         7.69020549100245   11.38452798814985    7.79039030006854
H         6.11081800291896   12.13922140696553    8.10006557712780
H         7.09344633108631   12.67326153083346    6.71432163092134
N         4.22829430731618    7.58518184613789    5.31883471126852
C         3.72692244407708    6.61366825480729    5.67329040974808
C         3.09366521499601    5.39654482945354    6.08371319889345
H         3.83335254338464    4.72276105554423    6.51526963515858
H         2.63011502045806    4.92396562539318    5.21626612953592
H         2.32973381103702    5.61824288349195    6.82815790296591

