58
CSD_code = RUFFUV | q = 1 | S = 0 | Stoichiometry = C20H24Br2N3NiO8(1+) | MND = 6
Ni        9.34733245258569    1.34353963802672    4.05898528678938
Br       10.66407516088660    2.11405436936712   -3.12849084806822
Br        5.98858402930219    3.08974923697811   10.39940752190558
C         9.98434653672811   -0.01302928397928    1.68783514811796
H        10.08141896924598   -0.96305852519832    1.14247865267923
C        10.15412171707755    1.16969225274726    0.90299459031262
C        10.14536740508979    2.44328920497587    1.55135627849788
C        10.28829748977834    3.60030687735346    0.72402214579752
C        10.43825860615348    3.47964467873981   -0.63463564074233
H        10.54746106726740    4.35940940719430   -1.25172176607192
C        10.45279607437765    2.22052431904526   -1.24099230019310
C        10.31125873229417    1.08256570394048   -0.48847891317670
H        10.30575512249273    0.11176461172133   -0.95945234734820
C        10.26124921091782    4.93645379646982    1.41413920556252
H        10.72559311008058    5.70175277330735    0.78654822957832
H        10.82032437972325    4.83453599359755    2.34557653617738
C         8.12636451691805    5.66504151763231    0.51553720794628
H         7.09977214206300    5.92769450864400    0.76095554441027
H         8.10072289737860    4.77323224648494   -0.10825492276707
H         8.58787490269883    6.48533327924273   -0.03356083403146
C         8.84500548312963    6.50731320973551    2.67829369989140
H         7.83835180803223    6.92782749368337    2.65817927409889
H         9.53346834553699    7.27944652340904    2.31739317254575
C         9.24023018428371    6.18405869270055    4.12145478493394
H        10.21666803632418    5.69657344324497    4.14370283805356
H         9.32406633491314    7.14026443243681    4.64881970047197
C         6.90961751484128    5.76059184736837    4.83003424390100
H         6.83618432273573    6.83072812144833    5.02063517933750
H         6.34418289050660    5.22587210725780    5.59056189491778
H         6.47754645048987    5.50935555650438    3.86611269717638
C         8.75684536633471    5.21747974953678    6.30650169164595
H         9.84023564904557    5.06674150194687    6.30810005422409
H         8.52115358756426    6.14306562430619    6.83560202221662
C         8.11599848392720    4.02648411345428    6.96744948954702
C         8.29172544029777    2.77750844095761    6.29817400150822
C         7.77440722138606    1.61073753943172    6.92803889857766
C         7.08985121811454    1.71711575102045    8.14819923659422
H         6.69827885496471    0.82558644847285    8.61327427410995
C         6.92308297207888    2.94176314131481    8.74754434444648
C         7.44202864471842    4.10056639294338    8.16034446015542
H         7.31635678204583    5.04836485824915    8.66235978612634
C         7.97951529620204    0.33393115490438    6.30731647038436
H         7.53748910228582   -0.52513415552215    6.83387584262994
N         8.87834530324150    5.36827331955215    1.74297771647806
N         8.31075918805558    5.32670911692103    4.88829212866613
O         9.75762054911639   -0.07438839875772    2.89639113189133
O        10.01467492210994    2.61464350718925    2.81537519575584
O         8.88769203504011    2.79677222003826    5.15848828524317
O         8.60651546482314    0.11123474002491    5.27614910933775
N         7.29933959271834    2.55377889399524    2.26481476290717
O         7.25818962171244    1.51629549563404    2.89306830324546
O         7.44184513701936    3.64589191960600    2.92961790142064
O         7.24831666629343    2.63780213350039    1.06113431443520
O        11.43887067835906    1.05805394472115    5.26536660107814
H         8.29451811600780    4.53048207374538    2.23904349203568
H        11.43273027493766    0.12716237790502    5.51074824639822
H         8.37501260019457    4.31597535985098    4.53777515274426
H        12.18420533754909    1.18797470097600    4.67234082549431

