50
CSD_code = RUFLAF | q = 1 | S = 0 | Stoichiometry = C13H22BClN10O2Rh(1+) | MND = 6
C         6.17250922319286    0.96598872627585    1.72411678615662
Rh        3.43158426834840    2.49052851514651    1.17967253871456
Cl        3.28934650580816    2.36287942820063   -1.08480436058965
O        -0.58668622569322    1.12738732043982    0.47845099158829
N         7.18446531328614   -0.40841314448399    3.46740261952820
B         3.55803831226592    5.08788815872509    2.91433396955451
N         4.78621749592329    3.92907927632741    1.07592985200364
N         4.70892716511548    4.97899399835426    1.89967311537278
N         2.06655253082075    3.92305340040214    1.28409152244971
N         2.26967616113195    4.97496225797891    2.08660798425086
N         3.59058501613791    2.61374238393952    3.21450208963205
N         3.63034279234831    3.82120733833401    3.78416999686991
N         1.91283615208138    1.01274535016354    1.21529888260197
N        -1.48913336585567    0.59840856072427    2.47944998420464
N         4.90318582223795    0.98535606156977    0.98723861464135
O         5.12239466055238   -0.93070497760753    2.71375111987871
C         0.92974931273047    0.88610585411585    2.29890396745894
C        -0.47222272125022    0.87402123083439    1.65686597508223
C         5.81724745539440    4.11323728615177    0.25821393842305
C         6.43349362933549    5.32140857737067    0.56882958727324
C         5.69461821058748    5.83727530506528    1.61477950973228
C         3.74053935196849    3.68605585094179    5.11004049689092
C         3.77359251873626    2.33760932582299    5.40811816583982
C         3.67499321478943    1.69911555152663    4.17539104022880
C         1.24342926721080    5.82551498484844    1.96560075674210
C         0.34919418478269    5.30252738059730    1.05399832520722
C         0.91486881165637    4.09829524168387    0.64483189661214
C         6.11423659628715   -0.22929607545625    2.69058540296319
H         6.31585687823840    1.88264653272154    2.30280190063515
H         7.02857368318006    0.84417386431437    1.05483931688817
H         7.20353726198811   -1.19261381868247    4.10076574118878
H         8.00341099954306    0.17045570369633    3.40280006865046
H         3.60653434728467    6.07372750277469    3.55177077288959
H         1.33468834816389    1.25108192653915    0.38169062271803
H         2.28417012209684    0.08651696427959    0.99651767410772
H        -2.42587652865524    0.58936148511814    2.10697183020146
H        -1.36072353159363    0.38504588368604    3.45262893044019
H         4.47083796474525    0.07980237576807    1.24768054589961
H         5.05716063043485    0.95590013294490   -0.02494265686206
H         0.97884677707711    1.74867150053816    2.97031469924745
H         1.09220312145150   -0.01930848024350    2.88583836142868
H         6.06228072315699    3.41013406226710   -0.51418256614781
H         7.28697622539073    5.75627934319998    0.09321782654264
H         5.81236776633945    6.75093185256616    2.16010757392153
H         3.78801169448326    4.53867725437777    5.75524939138869
H         3.85545012063129    1.88275075474860    6.37257024251165
H         3.67070362901645    0.64833289960144    3.95831576096575
H         1.21000080532378    6.73862728653870    2.52350718389268
H        -0.57453477019871    5.72835446265906    0.72389764576331
H         0.53434207196775    3.39047734259113   -0.06700563558041

