27
CSD_code = RUFSOA | q = 0 | S = 0 | Stoichiometry = C13H5F6O2Re | MND = 9
Re        2.45281008580307    2.63984213527438    1.98701496668303
F         5.12442015198612    1.10243860704607    2.04949496196178
F         5.02283749088243    1.00725826047643   -0.65023024737987
F         5.19879766893591    3.33744588848331   -2.05546345740520
F         5.20553692872208    5.71322738498306   -0.77235490035663
F         5.02961823845646    5.80452028235291    1.96062664511478
F         5.10472950277067    3.46893128505580    3.34587782292443
O         2.21693571299100    4.65519903682109    4.30602024683159
O         2.71943042460510    0.39103234568033    4.06821208193964
C         4.64343881746437    2.17772134135958    1.38195507882374
C         4.89453485734545    2.18236652165084   -0.02881090742506
C         5.02563599220589    3.35231500685627   -0.73125105632529
C         5.02893793033361    4.60126685732520   -0.05679850911034
C         4.90468533963503    4.64927984993850    1.30721117175769
C         4.64762532359921    3.46269953551143    2.06908611406884
C         2.32584537462777    3.88722493545835    3.47043497181300
C         2.65054710014968    1.24694062509436    3.31712402833363
C         0.79970219762295    3.78972003281842    0.69793431076056
C         0.26759600730701    2.59265828236583    1.29348813027289
C         0.87112366459611    1.47811800189425    0.61764112418963
C         1.82703560857099    1.98222483993790   -0.26831889193993
C         1.78411153439946    3.41078189395151   -0.21382548855486
H         0.45335299473755    4.79194584961942    0.89167004540608
H        -0.62830076036886    2.54353502589576    1.89489312558966
H         0.58860348892006    0.44494328599169    0.73885557977158
H         2.38669997098013    1.39958306831741   -0.98265814997534
H         2.31670835272072    4.07687981984004   -0.87432879777048

