65
CSD_code = RUFWEU | q = 0 | S = 0 | Stoichiometry = C28H14BF15MoO6 | MND = 6
Mo        7.63389277944153   -1.93938625452936   10.36745985801212
F         5.74663627600094   -0.74119486270388    7.88464033611388
F         3.10062058991256   -0.97085607336546    7.43814138271675
F         1.36028925731038    0.82771621861481    8.54970295336615
F         2.32743566618210    2.83617137797013   10.12838054656093
F         4.95855625296623    3.02178676056542   10.63248363276472
F         6.72171477586559    3.58665158150573    8.28636574187438
F         7.94061049898897    4.41549016766723    6.02788915900211
F         9.70923930334560    2.77147035326298    4.74580629456210
F        10.21184332969568    0.28587928819479    5.76178235507807
F         9.02218737015427   -0.53901615116412    8.00914907410954
F         9.16557815199686    3.22558167570650   10.02664016872937
F         9.80493073970302    4.27963337291914   12.40551809308997
F         8.51762964045145    3.46278153411623   14.67383230112597
F         6.55692217615145    1.56570018131284   14.49968851845201
F         5.87392213931293    0.54091301627076   12.10408675664709
O         7.35033211682880   -0.33616455229837    9.93231886235603
O         7.46848701053520   -2.76324795041059    8.70558203933263
O         5.55856146244115   -2.28593521038831   10.39269931709098
O         7.35306673192184   -1.65208150658413   12.22586982138292
O         7.45731522704305   -3.94120573150579   10.97103097640965
O         9.25361168131218   -2.10334370495042   10.55609314844032
C         7.06816348759567   -3.99498493380073    6.71668337259287
C         6.61873076281321   -3.45424312238475    8.04141201286387
C         5.32405649271375   -3.65532064487561    8.49579171379062
C         4.84318479447906   -3.01618019426671    9.65663147366905
C         3.39100254116219   -3.18519326217659   10.01266121597624
C         7.88662990427691   -1.50176403845739   14.53070171986531
C         7.75305180118036   -2.28945316583619   13.26127189991362
C         8.04274792675419   -3.64659624704726   13.22896441851129
C         7.87176166487383   -4.41649413103989   12.06616389207377
C         8.16950186720551   -5.88946133699180   12.12371070436116
C         5.44766125567153    1.13112877404826    9.29934996973641
C         4.91583024985622    0.14960805837419    8.47551579384782
C         3.55877302228355    0.02728814315441    8.21322316555056
C         2.67289004459868    0.93695971102986    8.77735009768767
C         3.17003739924970    1.95405643545867    9.58412950478588
C         4.53859747298307    2.03468655233560    9.83447263974887
C         7.84933822909712    1.51758815320968    8.25698856799015
C         7.59906085305383    2.76535618474335    7.69348777281198
C         8.21478424361670    3.20717678155502    6.52877479266646
C         9.11320871183162    2.37222321475738    5.87256511554910
C         9.37016940438973    1.11121114338757    6.39542776904202
C         8.74070365723429    0.70532095556236    7.57009206048899
C         7.48068257148919    1.85794854719115   10.97063389980997
C         8.48209604949119    2.80945790005565   11.10006188853840
C         8.83341474900689    3.36543493601313   12.32921952086141
C         8.18161428058771    2.95428076781259   13.48467147771858
C         7.18307894661266    1.99172832058525   13.39133292356513
C         6.85754648927666    1.46294045210534   12.15013163025537
B         7.06494311444293    1.04187952530236    9.61191898518399
H         4.63866441572188   -4.24401950894670    7.90864452387609
H         8.38083021813557   -4.13613637611691   14.12736110945549
H         6.51379513933203   -4.88551153488431    6.43800067579786
H         8.13629785007926   -4.19881403196647    6.75246717678034
H         6.90161238646177   -3.22850280494211    5.95953502482975
H         2.76274890413983   -2.90568128633847    9.16986837397990
H         3.18889646591175   -4.22971909453237   10.24265107579220
H         3.14651732826867   -2.57069826377952   10.87565318219220
H         8.09613666342164   -2.14108994493893   15.38131822538182
H         8.69979187566183   -0.78540929045892   14.40956917051992
H         6.97505670237148   -0.93332748371072   14.70845088119689
H         7.75308718554906   -6.33912436465042   13.02101012639493
H         9.25017025878077   -6.02252381357138   12.14822403560719
H         7.77764943980043   -6.38276921123925   11.23744508186294

