43
CSD_code = RUGMUB | q = 0 | S = 0 | Stoichiometry = C16H24Si2Ti | MND = 12
Ti        6.11791134532118    2.26113631029630   13.14961782228950
C         4.55924822016283    3.08554084163123   14.25238747573006
C         7.29032307073684    3.89716284401057   13.67369007823092
C         7.44167146829687    0.35992993371896   13.14486367881685
C         6.09701701422121   -0.03449484233893   13.43491065976778
C         5.79665008639266    0.41712793043515   14.73842477218596
C         6.92894737660044    1.06574717585559   15.26373459593655
C         7.93264626169713    1.04393936407320   14.27859810314377
C         6.58958046909891    1.67628662187641   10.96215963341159
C         5.24667209923793    1.27014875027810   11.24406595576236
C         4.46416547048833    2.44191310418151   11.33733607811169
C         5.28938669047117    3.55691433566364   11.10475352602438
C         6.59768314230279    3.08636144688974   10.89035708371207
Si        8.06428389656896    0.56797424227227   11.37122700099892
C         8.31064154745891   -0.98749200945617   10.29225040308332
C         9.70576616384587    1.54883153879112   11.34387096963309
Si        4.85239204666011   -0.39057574273685   12.05856913301522
C         3.06014510042396   -0.40708060373859   12.72552820797413
C         5.10150154063044   -1.99338743067026   11.05147000882422
H         4.88835576926604    0.19891923379907   15.28645941779025
H         7.03609321256132    1.44220320491721   16.27335743567837
H         8.94933411329213    1.39187947649157   14.41291916205614
H         3.38795094227201    2.47295648946185   11.45371006920466
H         4.96139769176920    4.58576917369328   11.02432938939227
H         7.44450676156266    3.69692707397408   10.60204031081600
H         3.67619295835012    2.43468655293477   14.21422457932057
H         4.81951092487237    3.21517329297481   15.31037154248791
H         4.25306100845347    4.06848548459399   13.87307474133968
H         7.42619578962107    3.98335747067500   14.75901504802064
H         8.28994132753742    3.81166050450353   13.22835895480816
H         6.86201781366976    4.84569416246586   13.32622554142656
H         7.44758559234465   -1.19675137270776    9.67310131790367
H         8.51073529691679   -1.86321141850932   10.89963635202120
H         9.16155088347325   -0.84450792052444    9.63537017983108
H         9.65810600443934    2.45003739519192   11.94746282880881
H         9.95846715376601    1.83953255929123   10.32954601469389
H        10.51995247636402    0.93772702002961   11.71915610231005
H         2.89702800781946   -1.27535782211169   13.35540717380144
H         2.35002852322752   -0.46136035944391   11.90700990045418
H         2.82934954039397    0.47792974503017   13.31055169497085
H         4.32365701148937   -2.70615557956503   11.30235868784007
H         6.05619447391378   -2.46080775578836   11.25762266494572
H         5.04035371200780   -1.80597042241064    9.98517570342538

