43
CSD_code = RUGTUI | q = -1 | S = 0 | Stoichiometry = C19H15MnNO7(1-) | MND = 6
Mn       15.30119111491511    3.95023020404515    3.20306779078082
O        17.10223529767413    4.45580807254414    2.90668268892205
C        17.83394416620069    4.06332869635856    1.89696873276301
C        19.23136788455509    3.95039013858509    2.04568341094607
C        20.03129783085629    3.56458329110139    0.99468893508371
C        19.47897407242967    3.29447142236166   -0.25133670834465
C        18.11607980380099    3.42808937871525   -0.42830879567549
C        17.28181246033880    3.79646673830629    0.61832618391682
C        15.81059911922431    3.96716774095211    0.34203844838379
O        15.06955633699363    4.23533789797379    1.35990423106463
O        15.39151644535153    3.89883910074280   -0.80959978091722
N        15.70605658033260    2.15056113680771    2.89627114194043
C        15.01285461607150    1.41738520833367    2.00256394917400
C        15.40109340454658    0.15882587769959    1.59637668128024
C        16.54825336981633   -0.41300645877346    2.13180546297391
O        15.09405999787485    6.22209216182504    3.63217044870755
H        19.65317548206459    4.16433972983780    3.01784472854160
H        21.10009237480673    3.47160876864886    1.14209015491680
H        20.11147770816331    2.98727641418960   -1.07263731961322
H        17.65460738461565    3.24512849323789   -1.38864528513214
H        14.12119012932258    1.88248189200309    1.60406594538775
H        14.80972270705188   -0.36891188363586    0.86372589867878
H        16.88291899125175   -1.39187090727929    1.82403319596263
H        15.28839860655962    6.19812491242468    4.57864955593158
O        13.56697469254311    3.58502552681307    3.57727296458706
C        12.86042995419298    4.08021363425151    4.55189674605619
C        11.46444618535106    4.22905632803937    4.40435096650851
C        10.68150996930252    4.68045593905874    5.44058652065625
C        11.24590287647379    4.98310284529497    6.67509803648148
C        12.60646019990090    4.83139456304599    6.84811714905297
C        13.42832829222531    4.40451176587046    5.81236190623958
C        14.90219650548935    4.26634646060923    6.07597535110065
O        15.63995264343961    3.88216721815666    5.09195110900326
C        17.24126130331545    0.31824846349969    3.08897200945033
C        16.79271518549596    1.57135893584963    3.44475071485838
H        17.30489983350343    2.15676880338454    4.19715408836055
H        18.12724075020633   -0.08287214739409    3.55745626783421
H        15.91313305122663    6.48873317401060    3.19576465455897
O        15.35226770705205    4.51217483108863    7.19468785987625
H        13.07974982099152    5.05282907273288    7.79494872730456
H        10.62495964408425    5.33570146107792    7.48701216035130
H         9.61523463712272    4.79806136968419    5.29315164702634
H        11.03446086326582    3.98767372791790    3.44276142501754

