63
CSD_code = RUGWUM | q = 0 | S = 0 | Stoichiometry = C24H24N10NiO4 | MND = 6
Ni       -1.72598525959097    4.37353939517452    4.53040376645720
C         0.45621301811481    2.68959221539413    5.48311498894684
H         0.53452136343263    3.46969822999802    6.22801824903408
C         1.30147745321832    1.58775415992511    5.51543745722386
H         2.06317333012867    1.52486721680012    6.27671431665181
C         1.15189131908313    0.58849320192522    4.57689138647809
H         1.78102837585447   -0.28738917691121    4.55972366117570
C         0.14154321971674    0.71705013936828    3.61844259826338
C        -0.65565861634988    1.86603071931162    3.66253261921527
H        -1.43361170047211    1.96663387049128    2.91574397291814
C        -0.11207885957185   -0.26052449078541    2.60925383502349
C        -0.94198737400832   -1.28060808187533    0.98210170690010
C        -1.75423276341294   -1.66944363457496   -0.14505499882942
C        -1.52221051098151   -2.87101477479323   -0.81521445351360
H        -0.72558014335746   -3.52016650663360   -0.48826781642654
C        -2.33142257887747   -3.19204900475161   -1.88885867426223
H        -2.19039076189789   -4.11275254119608   -2.44043632101417
C        -3.53712204570043   -1.27942140075208   -1.68106722247892
H        -4.35330552482537   -0.68130687306957   -2.06735544572675
C        -2.79315897979802   -0.85440005485836   -0.59630170358582
H        -2.99663320264083    0.08151806192961   -0.10027747527229
N        -0.50186644055271    2.82355105322518    4.56472630206315
N        -1.09368028054907   -0.15238224830770    1.69061249726645
N         0.59234721826975   -1.39953061792704    2.45791865004547
N         0.07802555089496   -2.02771532548868    1.45236769406252
N        -3.31731175440291   -2.41854716453818   -2.31579118242971
O         0.06532805762239    5.84795276537790    4.35124069622083
O        -1.84521405768944    4.22968473880170    6.81636569981742
H         0.79475798465078    5.47460988091615    4.85381537777912
H        -2.45807671250172    4.88089040484976    7.17172228138656
H        -0.18710146641002    6.66843095285806    4.78737997427926
H        -2.27550502729019    3.37214920708524    6.89761193360040
C        -3.90902574698432    6.05401443410397    3.57640092685517
H        -3.98562625644385    5.27297432176329    2.83228495047079
C        -4.75610344291149    7.15441184691865    3.54233023770322
H        -5.51749690418091    7.21515590942649    2.78057239701046
C        -4.60860278340683    8.15497412956752    4.47979332946696
H        -5.23903070720916    9.02996027816040    4.49557867902349
C        -3.59865014628408    8.02911065312960    5.43902761048276
C        -2.79956495179660    6.88138624034673    5.39675935424012
H        -2.02198024378859    6.78276560249799    6.14417115596705
C        -3.34759730170520    9.00837452139903    6.44722965524927
C        -2.52144218584155   10.03205842946845    8.07402240302603
C        -1.71142461806648   10.42410944646122    9.20167148504993
C        -1.94588149420273   11.62699865301333    9.86863194965150
H        -2.74274163240038   12.27441200188434    9.53880849636388
C        -1.13873233447135   11.95153141851155   10.94275990380993
H        -1.28157776183502   12.87345932649873   11.49182626394611
C         0.06938144393993   10.03972246571437   10.74147112343964
H         0.88563670495000    9.44348184270640   11.13048027155652
C        -0.67238044748754    9.61125162065091    9.65654105036355
H        -0.46708363255510    8.67435756914803    9.16312372843736
N        -2.95124305353061    5.92267247828471    4.49547617312182
N        -2.36717463698038    8.90295788935774    7.36745088120647
N        -4.05386187533440   10.14659709411797    6.59587871421096
N        -3.54182674359444   10.77702250757225    7.60117113481245
N        -0.15264753368735   11.18014785928155   11.37304639663128
O        -3.51749899205939    2.89953109542254    4.71411789135572
O        -1.60352250112795    4.51927500409540    2.24494445708742
H        -4.24762104598476    3.27261837399492    4.21212892616720
H        -0.99075644010142    3.86778194591065    1.88989795313559
H        -3.26577987072692    2.07874326683887    4.27820773863113
H        -1.17291569429486    5.37664745678526    2.16358039025331

