23
CSD_code = RUGWIA | q = 0 | S = 0 | Stoichiometry = C10H8I2N2Pd | MND = 4
Pd       -0.70208863436056   -1.90405852439752    1.78841819998566
I         0.59316774947953   -3.74208650696723    3.01907159145549
N         0.23965406762924   -0.28923865066051    2.73379007345511
C         1.16831280942550   -0.34528816472859    3.68646651125545
H         1.49542913514214   -1.32892536172722    3.99937766503009
C         1.71665530332704    0.77971415944847    4.27443800655382
H         2.46638965302453    0.67029380061389    5.04051832780843
C         1.28096331944501    2.02860598474772    3.85888719288695
H         1.68073147216242    2.93150234001951    4.29360785153471
C         0.31806538387053    2.09402357730983    2.87088622763511
H        -0.03605894532761    3.05449922005512    2.53624284567953
C        -0.19245203881028    0.91948484108073    2.31480850475054
I        -1.99787854847144   -3.74175187556504    0.55857231512095
N        -1.64452030096653   -0.28923563418189    0.84378997842296
C        -2.57317346956281   -0.34529055388329   -0.10889161681565
H        -2.90024952290032   -1.32892876931836   -0.42185568251530
C        -3.12148264732255    0.77972252861097   -0.69688692324007
H        -3.87119651642749    0.67032212712627   -1.46299146982125
C        -2.68572181490840    2.02861263527383   -0.28139794591405
H        -3.08544183754787    2.93151338810878   -0.71614922252728
C        -1.72276067367272    2.09402764801601    0.70653653488300
H        -1.36851216208999    3.05449340759686    1.04107349675078
C        -1.21233178113685    0.91948838342075    1.26268753762506

