51
CSD_code = RUGXUN | q = 0 | S = 0 | Stoichiometry = C20H18Cl2N2O8Zn | MND = 4
Zn       -1.51282764153662    3.13044463192937    4.47321496446040
C        -0.15051697960615    5.73427899066830    5.17118231606024
C         0.78749472340425    6.42759289512918    4.06487928847309
H         0.25541308223061    7.30811536901295    3.70841079153251
H         1.70946110351575    6.71907721690117    4.56867848671631
C         1.97601753171648    4.55902751212480    3.16471259531653
H         2.59874893990996    4.62861091852798    4.04309796725196
C         2.11266774857402    3.54055849128543    2.24963704630633
H         2.86328005135817    2.78334353248676    2.40353946347835
C         1.23606648544390    3.46117186372860    1.17810469043384
H         1.28982876221933    2.63865386137038    0.48435544542094
C         0.20509300288428    5.46840942537592    1.96073529683746
H        -0.55803279874123    6.23230799108010    1.92001949434452
C         0.26455323068596    4.45643702937363    1.01347071951756
C        -0.68926072537536    4.38801016740527   -0.07837694539895
H        -0.41920740984304    3.75838047405388   -0.91700733656175
C        -1.88396929253787    4.98796384867805   -0.09794926758972
H        -2.27452389862717    5.58035895430764    0.71533182328944
C        -2.77505251163491    4.81730995688412   -1.25931141086744
N         1.03572754177908    5.50398538698164    3.00766057246233
O        -0.19445571131419    4.49138878484581    5.10011991851238
O        -0.67973068498715    6.49506348604999    5.95706970329627
O        -2.49173666959916    4.24809708103237   -2.28366975811210
O        -3.96903726335209    5.39281077933845   -1.06181171684101
H        -4.53757050108852    5.25971009845169   -1.83647896084993
Cl       -2.42448117940649    2.02594920459854    6.13952071008267
C        -2.87564290959150    5.73367222070138    3.77382689122717
C        -3.81224534718995    6.42753810166549    4.88096255711432
H        -3.27939625427655    7.30762546810730    5.23739893756466
H        -4.73419711044524    6.71976035535293    4.37758062877973
C        -5.00062548853733    4.55870905942962    5.78050437662052
H        -5.62308942135331    4.62834478441983    4.90193363908016
C        -5.13731494935736    3.54001418555718    6.69534724114354
H        -5.88798236841671    2.78288286890682    6.54129895001838
C        -4.26125146431633    3.46080943776823    7.76731877502965
H        -4.31526120959100    2.63834494087395    8.46111265756042
C        -3.23036737321634    5.46833685583117    6.98525944170312
H        -2.46751543418614    6.23248685747786    7.02641559616219
C        -3.28998801780340    4.45622903008195    7.93237741390269
C        -2.33665343508825    4.38804170376156    9.02467009100357
H        -2.60699769055637    3.75857715651170    9.86332727037252
C        -1.14182558910406    4.98772722217514    9.04432396600822
H        -0.75095054247538    5.57967836577459    8.23087547096237
C        -0.25098959025859    4.81727950566851   10.20590491269037
N        -4.06064654535024    5.50388183710754    5.93806690021524
O        -2.83150370226031    4.49077921083908    3.84527238031554
O        -2.34590841784274    6.49434098966544    2.98819252543388
O        -0.53441441961103    4.24800181138170   11.23018932141728
O         0.94295950458037    5.39291357006144   10.00860245017828
H         1.51137965609404    5.25990871302107   10.78336823456193
Cl       -0.60152081589988    2.02465779624020    2.80753347336040

