115
CSD_code = RUGYIC | q = 0 | S = 0 | Stoichiometry = C57H48AgN4O2P3 | MND = 4
Ag        7.02226645607172   14.30430108708712   12.03808023445526
P         8.66767718972185   15.76209584647925   13.47500271781402
P         7.27974821930286   14.55449430439786    9.50796649725093
P         4.74704055653085   14.97318668134840   12.88318443175523
O         9.27450380494384   13.24125250638447   12.12509698069005
O         7.50853763356336   12.00298460224267   12.61610461798799
N        10.92863310565197   11.13728287695471   12.25524391208624
N        11.43098995501852   10.25577962112934   11.38999310343293
N        12.53124822883292   10.72297758653653   10.96142962466770
N        12.79769970541766   11.90463356885447   11.50262659820049
C        10.24126991669934   16.50979238544103   12.93595546938367
C        10.90745220724911   15.89572485928863   11.87712700010344
H        10.48542134343417   15.00610533992526   11.43303794871597
C        12.10485165414206   16.41116908179615   11.41785164814639
H        12.62375614234771   15.91963180390337   10.60841201386859
C        12.63611812033671   17.55242271569674   11.99782369022314
H        13.57042318236533   17.95822843432626   11.63820512071468
C        11.96867219131199   18.17390665401012   13.04083240773332
H        12.38214967862057   19.06401179942868   13.49348677173980
C        10.77453634312969   17.65803275951834   13.51307919706897
H        10.26003344971767   18.14508499717202   14.32974926426844
C         9.20882971291591   14.55569365964173   14.72300415319802
C         8.21298580171507   13.77626931125910   15.30716537914619
H         7.17448730038092   13.95113618358179   15.04507821824238
C         8.54353511403634   12.78019237255659   16.20471874849212
H         7.76583041374894   12.17624472794747   16.64925766254714
C         9.87423981492982   12.54666424619987   16.51891013889742
H        10.13648934037394   11.75836607465814   17.20985983454388
C        10.86773173239291   13.32044174221501   15.94215706595480
H        11.90504489858372   13.13699610119583   16.18443372866264
C        10.53941895924432   14.32541706651529   15.04761826279129
H        11.31800182105912   14.92564183959221   14.59672288402121
C         7.97944247658296   17.08497512226643   14.53846167803516
C         7.26663007815890   18.08942401500824   13.88768051116952
H         7.19925952405513   18.07304993615345   12.80726496169163
C         6.64391708468036   19.09013259125959   14.60798034478702
H         6.08703044860255   19.85881207417279   14.09196056565087
C         6.72381993382845   19.09500202057547   15.99188095992541
H         6.23038867723138   19.86999906522823   16.55972865361841
C         7.43585689340748   18.10297107797803   16.64595232791770
H         7.50331934726985   18.10898412718245   17.72451710268477
C         8.06107718727746   17.09921502206841   15.92617432578807
H         8.60904772705797   16.32403434731827   16.44345973640056
C         6.01402252099955   14.02431530384643    8.30138630377180
C         6.26733176905347   13.18026156386224    7.22607534371119
H         7.26674009845753   12.80506955688726    7.05605708633740
C         5.23806087300789   12.82022078516272    6.37380118978452
H         5.43995279898876   12.16280247140047    5.54051792529515
C         3.95538858310454   13.29908323513948    6.58296250788825
H         3.15611702439004   13.01170910696494    5.91590504209187
C         3.69905084102405   14.14633017272284    7.64915102793686
H         2.70069866822816   14.52264008684494    7.81781012299501
C         4.72214911946601   14.50313274575800    8.50559356574365
H         4.52351205285825   15.15608437724771    9.34627994085875
C         7.71038281640158   16.20514634425197    8.85595214953674
C         7.51378688109707   16.57484113651848    7.53003060838125
H         7.07852846883591   15.87383489106733    6.83217222091653
C         7.87685110235024   17.84167547630277    7.10843401718543
H         7.72307013926556   18.12692149814965    6.07781254635893
C         8.43945876131090   18.74261306613025    7.99864237041149
H         8.72242285172403   19.72880041821218    7.66104037024385
C         8.63807092684930   18.37827502057590    9.32094126225973
H         9.07907652288770   19.07517541377279   10.01892682822692
C         8.26824209346592   17.11688441123106    9.74732059003171
H         8.41483217733949   16.81897239936227   10.78075367831134
C         8.73307078563199   13.56676088889433    9.05327683844633
C         9.95098802454634   14.13181197183967    8.69607571860312
H        10.04535735292459   15.20534578928447    8.60389041686306
C        11.04700794267687   13.31642297116989    8.47139555028964
H        11.99645198750920   13.75594026097880    8.20272312173029
C        10.93694765388507   11.94313315425540    8.60289069789852
H        11.79820449766459   11.31183684939323    8.44627611720829
C         9.72697822955257   11.37833220076299    8.97853515037990
H         9.65281338582957   10.30874519601883    9.11033649903884
C         8.63171154997026   12.18541596100967    9.21291164726633
H         7.69014256394563   11.75644788924377    9.53496087674193
C         3.52113765352874   14.08262733836014   11.87050718418670
C         2.24963439431319   14.58003746509962   11.60576777593104
H         1.94301201853564   15.52945336061222   12.02270930404020
C         1.38491144695315   13.85892108659480   10.80223978528818
H         0.39770677046835   14.24626880903159   10.59470879860688
C         1.78080312634189   12.64542457823879   10.26230613865945
H         1.10249094760542   12.08989442998753    9.63154861759011
C         3.04558533520859   12.14586351036947   10.52751086337751
H         3.35438783895495   11.20146159093203   10.10469522689948
C         3.91589992495973   12.86319795721591   11.32697193430223
H         4.91113797940818   12.48431678320458   11.54025831874834
C         4.14606917623510   14.71006846942296   14.57782621886747
C         4.71785257512141   15.49090074284103   15.58279266352862
H         5.42101770207026   16.26910898432950   15.31434283517012
C         4.38386753194974   15.27526658163981   16.90476971731055
H         4.82671953872486   15.88771475315430   17.67668484121433
C         3.48885642954950   14.26936563666288   17.23788792483001
H         3.23010199078049   14.09747007522750   18.27221346991875
C         2.93341492570234   13.47996130230664   16.24453281248058
H         2.24215414437060   12.69165851012858   16.50505249196414
C         3.26262997594830   13.69132804522303   14.91697632598832
H         2.83561301668392   13.06779007964657   14.14385765170386
C         4.29268174866191   16.71082822454793   12.56981945842580
C         3.39963966666456   17.43936905954897   13.34779058000226
H         2.92797273979933   16.98060738962325   14.20542898960833
C         3.12046523684493   18.75606581243081   13.02698589316342
H         2.42782397854159   19.31875409233015   13.63609215177254
C         3.72200529195337   19.35391224896379   11.93152976743169
H         3.50017258350851   20.38263192472616   11.68832646490747
C         4.61139891403008   18.63225416329706   11.15113615291471
H         5.08869174064827   19.09284795903059   10.29814827525147
C         4.89667580254473   17.31970704397332   11.47350934338606
H         5.60736575222041   16.75214229028132   10.88121911699778
C         8.72404236648241   12.19409264070240   12.49527164914435
C         9.65328780325444   11.00050178522595   12.87247637701977
H         9.75293939260315   11.00338075157499   13.96320544120966
H         9.20513300867815   10.06081305924532   12.54814676536903
C        11.79808810552352   12.16693201617910   12.30849435613306
H        11.67267698766007   13.03411459669022   12.91714248815431

