84
CSD_code = RUHBIG | q = 1 | S = 0 | Stoichiometry = C38H42NP2Pd(1+) | MND = 4
Pd       11.99022527785649    0.88006359679621    4.85721400850841
C        12.86101259138164    1.57382142853015    6.52995961100380
C        12.57199569849742    1.35699777310121    7.88681504413628
H        11.69854273285587    0.78375316371366    8.17579596084992
C        13.39253256172585    1.86503865626308    8.85579743564707
H        13.16660741600970    1.70178926029340    9.89958568415786
C        14.55071701890268    2.59344715162484    8.52119848463932
C        15.40670163485501    3.10123172964756    9.52100175064733
H        15.14743270484365    2.92937080865973   10.55534461799591
C        16.53820782400832    3.79034094997488    9.19085152268803
H        17.18995492878542    4.17661472859208    9.95925087416692
C        16.86184393852350    3.99514754138555    7.84177185304373
H        17.76227074919925    4.53481659217131    7.58932378793691
C        16.05284266872688    3.51731837551817    6.84869011996912
H        16.33640488557026    3.68154319962440    5.82040812644060
C        14.86874351848351    2.80908881756696    7.15233301434607
C        13.98341385214180    2.28899826528514    6.16966599770582
C        14.23313898744543    2.46172419180968    4.68558165955701
H        14.80237226525448    3.38046975165866    4.47709248485227
C        15.03009981559204    1.25091826216102    4.17562611900601
H        14.36897778798980    0.37156885539413    4.09072889344658
H        15.82228805800924    1.02207856147066    4.88605144054225
H        15.48975911176411    1.44113883652165    3.20822323772817
C        13.07094402164507    2.63680959004088    2.55996280504351
H        13.69201924052498    3.49761334900665    2.28245489182147
H        12.08867281183048    2.75854615861977    2.09796640661343
H        13.52737356219792    1.73294482222253    2.15807312400136
C        12.21249082746788    3.76724291337053    4.44804166590676
H        12.75144742964171    4.66455288363717    4.11702650468887
H        12.12958479736934    3.80251267798752    5.53572946535725
H        11.21213111675418    3.78930917301445    4.00830133985335
C        12.02716989375226   -1.99441312473669    6.62518494858121
C        11.59321870878805   -3.14403264828058    7.27811619172930
H        10.53826478113718   -3.32449936592341    7.43052698501252
C        12.51866920919197   -4.06443390951530    7.73562402505482
H        12.18234947668061   -4.95282905041619    8.24837434216374
C        13.87397491170673   -3.84965202120874    7.53865566060828
H        14.59044366766869   -4.57068654208913    7.90099023419459
C        14.30986612893973   -2.71250987069138    6.87751714751132
H        15.36526442318339   -2.54755261469254    6.72115757657321
C        13.38856400646158   -1.78736877006158    6.42244678686908
H        13.71693021507388   -0.87980505741487    5.91367842099968
C         9.62769182282589   -0.50293269547472    7.22499413665636
H         9.39387317491602   -1.40027003085516    7.78707827049088
C         8.98356720978994    0.63258617352376    7.47728291184085
H         8.21999826839985    0.63953117861813    8.24680270890966
C         9.21106901014685    1.93715299783768    6.80275691175478
H        10.07738011482346    1.88746768908668    6.12581047765349
H         9.38766536492954    2.71096546881135    7.54940224187371
H         8.32047823230159    2.22189625590484    6.24206403178722
C         9.93215224399907   -1.71346529172060    4.70742150997141
H         9.63195821095820   -2.67432564055116    5.13745730343190
H         9.02508197468109   -1.14932084168126    4.45934910574466
C        10.79417470512286   -1.91414655437388    3.46357297320463
H        11.73053498324637   -2.40326301755605    3.77462166880015
C        10.10245165417135   -2.78071360114520    2.42033329849158
H         9.96690290205914   -3.78860478947551    2.80870416452097
H        10.70017369731314   -2.84666053926893    1.51267483521340
H         9.12225887380375   -2.37956193488791    2.17135898451876
C         9.74768783697181    0.46631609182552    2.21819698986495
C         9.10144721954276    0.03125230266766    1.06398493666212
H         9.54074929153728   -0.74053074347324    0.44969367679220
C         7.89487785057274    0.60151466345272    0.69893264088679
H         7.39341474877096    0.26245577055999   -0.19482787444248
C         7.32775681702415    1.60302214741794    1.47194735738382
H         6.38670024605649    2.04160113360957    1.17805718690625
C         7.97002621950321    2.04559284123861    2.61728840136837
H         7.53151793228568    2.83121050065215    3.21452313645327
C         9.17579859304494    1.47897034369248    2.98643006586393
H         9.69804906305289    1.81817256419488    3.88476811237639
C        12.33924004927828   -0.59280212861344    1.42197231820546
C        13.39774316568145   -1.48576660444085    1.58730876284580
H        13.54864150087212   -1.97438935326813    2.54203253432060
C        14.25761717139083   -1.74839668352978    0.53778985436734
H        15.06658743815219   -2.45097351482054    0.66894823487470
C        14.08398378151254   -1.10691583684006   -0.67875102470667
H        14.75301375738436   -1.31547050026995   -1.49906805181051
C        13.05962214193765   -0.18761257899856   -0.83592102463202
H        12.93381800798407    0.32676193876721   -1.77656486154511
C        12.19524771751158    0.07911579818922    0.21090486091365
H        11.40872029847222    0.81015098465936    0.08657739971219
N        12.91934679092731    2.55561686560869    4.01261518732744
P        11.30278988182502   -0.21332867741970    2.86565520140153
P        10.89082477698351   -0.74933124219763    5.95858019213952

