84
CSD_code = RUHBEC | q = 1 | S = 0 | Stoichiometry = C38H42NP2Pd(1+) | MND = 4
Pd        5.11583482318209    0.87014515868566   15.40103573033432
C         4.40525538509558    1.61957253617028   17.13285797290659
C         4.69238493152915    1.20328654631994   18.44548220165906
H         5.45991186391647    0.45758563150015   18.62886173196120
C         4.01668267653551    1.73128600671943   19.51001323433407
H         4.24395280261082    1.40455377298448   20.51443996058696
C         3.01886695781389    2.70796944332168   19.32602470714109
C         2.32214004634815    3.25816433075228   20.42222038940450
H         2.56486409647950    2.90678974295460   21.41429248972436
C         1.36464976976330    4.21338843605388   20.23494753051920
H         0.83353092749755    4.63123969203454   21.07624736881549
C         1.06840696763783    4.65951760708947   18.93888865414783
H         0.31389090502749    5.41913529273125   18.79973097152880
C         1.72469948208230    4.14498607904284   17.85555843921664
H         1.47808419582143    4.51573312560581   16.87249964445046
C         2.71570365877496    3.14989599807211   18.01000201389270
C         3.42458174586603    2.56709546752324   16.92497855763877
C         3.19812238008558    3.00475456291567   15.49568865029848
H         2.16268011767411    3.33228919621995   15.32028564604579
C         4.14617217335412    4.17551385888410   15.22375178340991
H         5.18370586936557    3.83763852127330   15.30816112730314
H         3.98403709466447    4.93564680367725   15.98440058726006
H         3.98247461149421    4.63060131865001   14.25041228373959
C         3.45420072407918    2.22652628356519   13.20558091686088
H         2.54683289235548    2.79577560184899   12.96948181419840
H         3.46561344123659    1.33302486237090   12.57832505897770
H         4.32611887534211    2.83018782626769   12.95383913046490
C         2.42767106395710    0.82758350868580   14.82278877751691
H         1.46428931941709    1.17717978077739   14.42618686293138
H         2.29437542300268    0.62068543806376   15.88874375139067
H         2.69556111305647   -0.09519679718439   14.29534830122449
C         5.10290625729802   -0.65319229190171   11.92783504975753
C         4.05670679954254   -1.54722864079636   12.16123025518528
H         3.84849086760394   -1.87407823774734   13.17366221060426
C         3.28790019508395   -2.01583610409200   11.11351214558255
H         2.48849670014207   -2.71645829439358   11.30223140621521
C         3.54040903965719   -1.57767130200382    9.82279335927866
H         2.94147612321495   -1.94163048053404    9.00264165598256
C         4.55130139730914   -0.66011809120457    9.58973278846695
H         4.73651535863088   -0.30352875041624    8.58794428976186
C         5.32650755782496   -0.18968111560815   10.63564454874542
H         6.09722381740066    0.54193937490822   10.44395537631495
C         7.25219271129093    1.11059755664667   12.76120526852350
C         7.27560989020736    2.38197631894854   13.32679140536765
H         6.53719275298044    2.63071594191126   14.09159273532069
C         8.21895970605331    3.31318365649953   12.93240937726156
H         8.22907581497407    4.29738083374707   13.37651313185907
C         9.15001345490428    2.97661513749634   11.96376202482006
H         9.88787788124286    3.69840716008229   11.64960722467078
C         9.13747108101357    1.71062159039936   11.39828441150182
H         9.86583449135650    1.44987302802595   10.64546905477696
C         8.19691219050546    0.77666490753024   11.79310895001241
H         8.19892478168640   -0.20720088307916   11.34505957198371
C         6.36196507172388   -2.76374036768648   14.09162987183627
H         7.02113999368205   -3.51752507371565   14.51922287993703
H         5.97858898336769   -3.14720616132292   13.14821911936962
H         5.52803662772613   -2.61722751295884   14.77832619921511
C         7.12486711911226   -1.46355592449808   13.87253078688974
H         7.84812828177328   -1.61001377188340   13.06000737045272
C         7.87143122389778   -1.01202393399057   15.12773333650542
H         8.56658175829866   -0.20045878099783   14.87673188444378
H         8.45185497558335   -1.83380596930583   15.55898982744754
C         7.93455158029744    0.26579905246570   17.63275064190129
H         8.34082803999263   -0.51273928936916   18.26867214217569
C         8.32120590148470    1.52849089928622   17.78444737206532
H         9.05859401793097    1.76473659791382   18.54266700292691
C         7.82681811540605    2.68248793819992   16.99243100605527
H         6.98025043460536    2.37996030136931   16.36180938984525
H         8.62677465405711    3.07295901642085   16.36322636165134
H         7.51070658697274    3.48241689573532   17.66058789106162
C         5.98149500320711   -1.78049472461939   17.18957524269490
C         4.59643590204152   -1.90849097166712   17.09994060710424
H         4.02053966445697   -1.13028241106293   16.58749922464121
C         3.96057244139474   -3.00240819144260   17.65579446148178
H         2.88720758228338   -3.09768557171214   17.58960070831257
C         4.70563009208870   -3.97700399923324   18.30163360953833
H         4.21163760619906   -4.83011633425294   18.74008022814127
C         6.08378260951529   -3.85993999788742   18.38307315258155
H         6.66154191149259   -4.62332927321820   18.88149852120872
C         6.72497936770944   -2.76669193514137   17.82747578014179
H         7.80146750181426   -2.68788358098401   17.88938419199052
N         3.46772772575974    1.84204045374761   14.61786931432603
P         5.99746632839143   -0.04612892681427   13.39485880657640
P         6.73589769247074   -0.31924539946281   16.41767053563033

