66
CSD_code = RUHFUW | q = 1 | S = 0 | Stoichiometry = C20H40N3NiO2(1+) | MND = 5
Ni       10.19657550607766    9.73641981761363    3.84679787296199
O         8.51817732644206    9.79698256362252    3.24138303443482
O        10.35373243586764    7.80234171775239    3.24710541322116
N        12.02541999819652    9.94099309880849    4.60827888669402
N        10.83925345996686   11.20412108268568    2.32811356006992
C         9.45034705588848    7.11809020179422    2.69128689796788
N         9.51023058255529    9.61188849144624    5.97158708526359
C         7.79696127985367    8.91714223479249    2.69013507440313
C         9.79486923989706    5.71026932868564    2.33486537054398
C         8.16597291801949    7.61149792601886    2.39969061428429
H         7.45292909733528    6.96306260579375    1.93082085856441
C        10.76229336382951    5.02433692223148    3.27957808624806
H        11.08003440453569    5.57673724829450    4.15044425036054
H        10.62125587177432    3.96891603531508    3.45060077814862
C        12.30423750231027   11.18376538312915    2.48599040830854
H        12.76118578419837   12.07656915769351    2.03681621433952
H        12.69275953681444   10.30635663997094    1.96431549402270
C        12.67203097826802   11.10468232633676    3.96553269479220
H        13.76184462317031   11.04981944715275    4.07770912724789
H        12.33294255366319   12.01675550162267    4.46105124008678
C        11.24313959528445    5.48088209163938    1.94923044885785
H        11.44033024343351    4.74636271185816    1.18464065984035
H        11.88784789656716    6.34538787529079    1.91290524240234
C        11.91143368044636   10.15774102426619    6.06620273091459
H        11.70201585765571   11.21299259909529    6.25262180429319
H        12.85653654545438    9.91259301999727    6.56591598501018
C        12.83736085908700    8.74490861944094    4.36290276904811
H        13.84408205229051    8.86636469307580    4.77794971229282
H        12.91556667017738    8.55666301278891    3.29525361229692
H        12.36995159989963    7.87516619436991    4.81650051533933
C         6.36853701440920    9.37048863336167    2.31783940835918
C        10.48479033893931   10.77604814446868    0.97132579530178
H         9.40667407326069   10.84189336552920    0.83962980152517
H        10.78744553235177    9.74039828503713    0.81598201042113
H        10.96895698032076   11.41056423931194    0.21954925041414
C        10.78053431061869    9.32028559366418    6.65869979919820
H        11.00320011557897    8.25949974373093    6.52478091565468
H        10.69973133033372    9.51870413250142    7.73689669088751
C         8.56964877722956    8.51099430543390    6.19856655477993
H         8.95771423945880    7.59275253147540    5.75911903586200
H         7.61796050706858    8.74153077126552    5.72424272497034
H         8.39842677250166    8.35346254166806    7.27009493574568
C        10.31089981821973   12.55274526956848    2.54422113123658
H        10.68801362048974   13.24834168470705    1.78443539132603
H        10.59119147119291   12.92409227299745    3.52726719423285
H         9.22446401076679   12.52688245222913    2.49081388947730
C         8.74880391737413    4.85313510553942    1.66328607164489
H         7.87267424695291    4.73239295478599    2.29774824801102
H         9.15963575633811    3.86560403591945    1.46962755994575
H         8.44303569739904    5.28115644070911    0.71045629356126
C         5.36960541990473    8.55636318224057    3.14534354555747
H         5.51676082417742    8.73014639612611    4.20900857761765
H         5.46699757980433    7.49193028628403    2.95402235788025
H         4.35712725059953    8.85852074593734    2.88907282732215
C         8.91148201080838   10.84612156810036    6.48369352593515
H         7.99778618855028   11.05840845657585    5.93242778874186
H         9.58735042608201   11.68795895401724    6.35231725589347
H         8.66758639849770   10.75263939473646    7.54935771882203
C         6.19366732580845   10.85743277607776    2.63202832764755
H         6.86974469629035   11.46104888819670    2.03140305563631
H         6.39158271379911   11.06014936109420    3.68146922743397
H         5.17464956388701   11.16154993514181    2.40904895616519
C         6.13614897410473    9.14275341686711    0.82167275364844
H         5.16760496899645    9.55014566621638    0.54217231643115
H         6.14346781046616    8.08712864708912    0.56914281853013
H         6.89978079846341    9.64322024880526    0.23050980192230

