47
CSD_code = RUHGUW | q = 0 | S = 0 | Stoichiometry = C20H20F2N4Ni | MND = 6
Ni        0.91658909283166    2.70360435958539    7.29711842935317
F         2.30384638311565    1.65108099757831    7.39874845437453
N         0.43445414015139    2.26905347949779    9.47212603320681
C         1.23679489926212    1.51238360497480   10.20837713701635
H         2.04624243377248    1.02743284224532    9.68211688445300
C         1.06739240517074    1.34022488327689   11.57342505280138
H         1.74684621166451    0.71454701632088   12.13195837400591
C         0.01350950766923    1.98489373132188   12.19974161821752
H        -0.15003865261848    1.87481815344209   13.26267823737124
C        -0.82603675407852    2.77323593824491   11.43026867280730
H        -1.66114985409944    3.29336044508717   11.87418307593461
C        -0.57579569666150    2.88447005278750   10.07115791482206
H        -1.20600378903834    3.48939246596540    9.43545153949492
N        -0.33476081128896    0.98479252824999    6.59020579163394
C         0.16478762838942   -0.24233107309832    6.53552276952034
H         1.17836616653479   -0.35879951179360    6.89053715014862
C        -0.55105333755748   -1.32600196826400    6.05066218907592
H        -0.10252183714322   -2.30742679767777    6.02643439579688
C        -1.84530300704173   -1.12213141473363    5.60147836503764
H        -2.43374869916872   -1.94315573232440    5.21649592777243
C        -2.36651500252375    0.15979352350824    5.65836149384883
H        -3.37027825805407    0.36724931357716    5.32015824434415
C        -1.57431033496133    1.18023020569243    6.16116507708209
H        -1.94557999726368    2.19260822550683    6.22648439089106
F        -0.47077593119056    3.75587806017159    7.19541140522264
N         1.40146496191764    3.14130006955358    5.12344853416950
C         0.59943432157340    3.89780034713056    4.38668484428611
H        -0.20922732279032    4.38426025113647    4.91277228842446
C         0.76829386567739    4.06813571576717    3.02132995183872
H         0.08922694248707    4.69388922163793    2.46240753541835
C         1.82127431260513    3.42174687968088    2.39526183953952
H         1.98425511470111    3.53017507149670    1.33206466075863
C         2.66067978914807    2.63383795922021    3.16531808979151
H         3.49516178503229    2.11248129239560    2.72166167446464
C         2.41106874502924    2.52454330708790    4.52469244603065
H         3.04110216355058    1.91985908872908    5.16079210208302
N         2.16863144665046    4.42256307896048    8.00408239985605
C         1.66947197465510    5.64977862444702    8.05966267190691
H         0.65580938524002    5.76671072845817    7.70502748119503
C         2.38583311491811    6.73295712455070    8.54486139849985
H         1.93770921548553    7.71455021009328    8.56973682747574
C         3.68018474146417    6.52839202132487    8.99345399602294
H         4.26903747176182    7.34901534761125    9.37866415284427
C         4.20095973235158    5.24633866591385    8.93569504915266
H         5.20474676782235    5.03832443445579    9.27347810558789
C         3.40825718466150    4.22646959625351    8.43257070270426
H         3.77906738018563    3.21396763495261    8.36666462371473

