66
CSD_code = RUHKAG | q = 0 | S = 0 | Stoichiometry = C27H28BN6OPSeW | MND = 7
W        11.98987896874369   12.40656632381353   25.82950957086556
C        10.54541770663004   11.51685382868355   24.63943462575554
C         8.70836589263600   11.38469960669873   23.01542778679154
C         7.36208391885458   11.34046435502629   22.72754954722878
C         6.40978682181436   11.32651322456120   23.74372305771104
C         6.84705705938143   11.35526944752596   25.06267399289261
C         8.19203700216496   11.42006448021972   25.36424521763998
C         9.14868810909851   11.43734463720704   24.34414220007660
C         4.95010285489535   11.28469083325204   23.40878466791263
N        12.96748634812898   13.53306609603495   27.38540483303486
N        12.37410439554937   13.78830641113079   28.55425997235823
C        13.19870444223145   14.49239236729299   29.33922839368984
C        14.37632255041518   14.70464107371198   28.64856511149495
C        14.18130579433835   14.07583451563164   27.42144415173651
N        11.38464215084321   11.21723715468186   27.51614058392272
N        10.95474438802443   11.76785576067486   28.65499159866766
C        10.54293292699323   10.80661352459810   29.49619026915011
C        10.70962143329730    9.58770689926480   28.87207474303890
C        11.24637531714778    9.90104181956706   27.62411269907697
N        10.34014993829799   13.66498241405437   26.43076214618246
N        10.06051103240397   13.87303223824896   27.71928845860598
C         8.95873456040507   14.63342685207026   27.83478464021847
C         8.50787472212854   14.92814715691852   26.56717427143849
C         9.41608631073263   14.29327414740784   25.71973871711463
B        10.94187434240166   13.29162954922961   28.82755476951966
C        13.61042815179595   11.34360327194253   25.52363135805502
O        14.50752977462407   10.67278900553382   25.26355809668508
P        12.76139995294006   14.06263554409441   24.19241009136138
C        14.98550252972676   12.90275711542528   23.06808958052893
C        16.32313083137895   12.77135794442891   22.75109013517283
C        17.22313988497769   13.76006001169251   23.11715152888364
C        16.77840917706346   14.87749995509492   23.80229795602532
C        15.43772271382438   15.01380599482408   24.12068764485307
C        14.52793232426956   14.03097229572520   23.74556727145326
C        12.46375312320293   15.83826513284485   24.57691258089895
C        11.99190282176466   13.94968009268805   22.53303978294555
C        11.68511279711076   11.03155312893495   24.16288056465219
Se       12.38072403873692   10.00398255476213   22.87866773197841
H         9.44241543832864   11.38062546478984   22.22251852939047
H         7.03641515258434   11.30544209637879   21.69721987382747
H         6.12222565225412   11.33097865316987   25.86487747369717
H         8.51599438051744   11.42809977193171   26.39699462330341
H         4.34998649605438   11.11038583779215   24.29850800309348
H         4.74622521169723   10.49480631125731   22.68759018683767
H         4.63795088854425   12.22952732348260   22.96250200743947
H        12.90771015033175   14.79388172027570   30.32485975071128
H        15.24606067569231   15.23010704602231   28.98450550097937
H        14.85560316629161   13.98645130929389   26.58777262587706
H        10.16630918779014   11.04399596032487   30.47031222276900
H        10.47953932085469    8.61713616677959   29.25949829668644
H        11.52934078204587    9.24805342095278   26.81703979850319
H         8.57399835035221   14.91234303108682   28.79457089069173
H         7.65243378713034   15.50945733713793   26.29196956788005
H         9.41911809285762   14.25954605808140   24.64574590949859
H        10.56832695024330   13.61052301489876   29.90215835406170
H        14.28934357699824   12.12078304093506   22.79863131099395
H        16.66454217533280   11.89253957705284   22.22585619106429
H        18.27045764441928   13.65733251749873   22.87472733721622
H        17.47804651014448   15.64739078333236   24.09508055272692
H        15.10880618229456   15.88954530164221   24.66175670821176
H        12.90295672302358   16.09004358931487   25.54244885418057
H        11.38720917342985   15.99715364325932   24.63801725097302
H        12.88129390534677   16.47982202788784   23.80075228514714
H        12.13890935081961   12.94354850649938   22.14103200904991
H        12.44074658691668   14.67644099460047   21.85484702114358
H        10.92105737872844   14.13222272886205   22.62271651443285

