54
CSD_code = RUHKIO | q = 0 | S = 0 | Stoichiometry = C20H30Cl2SiTi | MND = 12
Ti        1.19318766091365    2.13738040133671    3.22190443845250
Cl        3.41486869209224    2.34921069394699    3.09195267763392
Cl        0.89147873583906    4.29499768197548    2.72440081269203
Si       -0.80107583997295   -0.34659319109626    3.88294626062190
C         1.47034658606843    0.95212356353944    5.23197349178116
C         2.32073611236236   -0.25610210896637    5.48382113087246
H         1.78487102434869   -1.17315293536019    5.26832698723585
H         2.61572453239987   -0.27530653532631    6.53513263458339
H         3.23360903325641   -0.22134325318435    4.88724531126267
C         1.89466575929515    2.25758555103465    5.58970918527266
C         3.21448684498643    2.61453464510302    6.19685684809814
H         3.99432107294066    1.93041265426886    5.86945995353175
H         3.14244427718995    2.56534626493392    7.28637935090930
H         3.50783223510935    3.62636023761475    5.92032850204024
C         0.80370614087452    3.13442611712640    5.42001315048884
C         0.77872536467125    4.57327133421627    5.83084850534121
H        -0.01092429879863    5.11665260921928    5.31707430395421
H         1.72887051127806    5.05691408918282    5.60565411046670
H         0.60650723878622    4.64386214828575    6.90779780010711
C        -0.30425905630770    2.37580857598606    4.95448446370114
C        -1.68013429076136    2.96496525782867    4.86869185775327
H        -2.40522921506834    2.24722509258388    4.50479326579382
H        -1.68314312394534    3.83810211643859    4.21398922798046
H        -1.99649328052157    3.29362513881955    5.86137586072934
C         0.08105352430943    0.99701630363807    4.89770860797799
C         1.35269235173563    0.23939316477706    1.92714135861320
C         2.26889986817920   -0.92323234418815    2.16406239856061
H         1.86769573871340   -1.61090718834298    2.89860360748815
H         3.24873958413387   -0.57706102907912    2.49740650999357
H         2.41077179053684   -1.46970352400944    1.22881379943355
C         1.67034864668834    1.26022759040106    0.99074513377788
C         2.91930753926672    1.34853293278571    0.17107634325249
H         3.75537208545878    0.86663097978379    0.67271450465351
H         3.18631553245112    2.38804332629490   -0.01718027370674
H         2.76070992415816    0.85685116232089   -0.79205743788143
C         0.53636468043479    2.08439043946574    0.83967851900690
C         0.39037002968796    3.19344225923374   -0.15368800321845
H        -0.36836083947131    3.90572904910612    0.16293992104541
H         0.09928250343343    2.78169503368294   -1.12339578561046
H         1.33092191521691    3.72820400717168   -0.27934204588875
C        -0.48951450191498    1.58034565461637    1.67963805620729
C        -1.89543405632961    2.09552354781182    1.61161971029330
H        -2.56560460919365    1.50938881234544    2.22956132159179
H        -2.24952099105564    2.03824379731775    0.58008692116722
H        -1.94282293526678    3.14176885096383    1.91738197225072
C        -0.01816943467784    0.38898377585363    2.31473459959491
C        -0.42289410053454   -2.17554024037152    4.31335636789109
H         0.57186239967637   -2.53016579681645    4.07602451543138
H        -1.12229915727097   -2.80988775996087    3.77816337123161
H        -0.58584933370980   -2.33943279047242    5.37436242743901
C        -2.71399746695046   -0.43359157522613    3.96353797985726
H        -3.23667691620963    0.51105642681107    4.03957987772420
H        -2.99860952654059   -1.02400750992746    4.82848658949262
H        -3.09107696199176   -0.94754350549444    3.08457900102600

