75
CSD_code = RUHNEN | q = 0 | S = 0 | Stoichiometry = C21H48FeOP4 | MND = 5
Fe       11.67312127442745    0.53552508249873   14.49216207581060
P        10.50069926258135   -0.57876946624929   15.92860097109863
P        12.28600148638526   -1.35993397037647   13.70515686462653
P        10.81042785293032    1.34033228248287   12.68378853219868
P        11.42045514005632    2.48501413010848   15.35191220199996
O        14.50391025109910    0.96024748096552   14.97701618029859
C        10.67368105911556   -2.40685288433728   15.64593311255512
C        12.00746611698035   -2.67663697905215   14.97324772923698
C        10.31411761454137    3.10984115567801   12.93756017629109
C        11.20418510944280    3.72834565365960   13.99852900420769
C         8.65489059524372   -0.52670112461934   16.18592749763848
C         8.02457529177165   -1.34380577549634   17.30874189536300
C        11.06928636173057   -0.50262908246598   17.69966320139082
C        12.52445129985144   -0.91674003359840   17.86494964859459
C        14.02649114957240   -1.79961359060447   13.28122624582178
C        14.57482055081868   -1.03971051974170   12.08318950307886
C        11.34480514027469   -2.06891817693354   12.27231572735903
C        11.74258665917956   -3.42634299802737   11.70725051817106
C        11.94071234929851    1.55288153977344   11.21779254725023
C        13.16044559617032    2.41082292162370   11.51733459179642
C         9.32698754535461    0.82392883209074   11.68043203454496
C         8.18821664958353    0.34044682759936   12.55968275142024
C        12.73352876371749    3.37954832798689   16.29014463977600
C        13.06465279972324    2.74948394675468   17.63432802540583
C         9.90413320912216    2.85891375398291   16.35824188439702
C         9.75389054731544    4.23009330237186   17.00493657165290
C        13.36911174138980    0.79103221419445   14.78538404576062
H        10.57724857708337   -2.95435548370454   16.58880768048340
H         9.85420171270431   -2.70884412036662   14.98348013160327
H        12.04756771162347   -3.67375499672196   14.52365620257665
H        12.83066423900005   -2.58961678001427   15.68875811455629
H        10.35809790168493    3.65349878121661   11.98742745673601
H         9.27367648472864    3.10155018901150   13.28169624590305
H        10.79163773103003    4.66519135394576   14.38602145058388
H        12.20326181647222    3.92962729418553   13.60127769415155
H         8.37178213359864    0.52397620503588   16.29094730820247
H         8.25100427268827   -0.86197230958031   15.22419211907815
H         6.94223433237795   -1.34819148669379   17.18314558726516
H         8.36817094316560   -2.37526225665218   17.29269287094560
H         8.24216228529275   -0.91626149147651   18.28434371932638
H        10.95000385940922    0.53645543051210   18.01966021995078
H        10.42444437985578   -1.13366147940508   18.31579272710161
H        12.62553252208540   -2.00004601579673   17.86927020188986
H        13.11708770510930   -0.51575450973778   17.04054303678236
H        12.92884688297249   -0.53828692283403   18.80260557901557
H        14.61874786728189   -1.56335926304626   14.17206105408912
H        14.07295655156918   -2.88236549789992   13.12011672066250
H        15.61978521316392   -1.29724695249243   11.91517958840519
H        14.01485161432726   -1.27340189263720   11.17903087029953
H        14.50865636888786    0.03033037148834   12.26307202288933
H        10.30380894266638   -2.08843576366516   12.61790096995137
H        11.39815504846904   -1.31044718277590   11.48526103900081
H        11.71936229386993   -4.20389800794439   12.46735375265077
H        11.04154911988240   -3.70827653832574   10.92193926412047
H        12.73860441663181   -3.39833928083682   11.27242548609570
H        12.27022535618144    0.54763128528481   10.93887614232658
H        11.36477136220447    1.96887018271235   10.38392711023019
H        13.54884477268418    2.16054770604794   12.50632781050782
H        13.94438034509118    2.23815532567324   10.78122522307230
H        12.91079401712348    3.46954532331205   11.49994514932479
H         9.01637972811642    1.68583224630082   11.07971263543160
H         9.63347882759024    0.02679810643227   10.99663300438993
H         7.87429027587622    1.12035547450554   13.25145887119738
H         7.32883885221082    0.03935396401623   11.96224098342345
H         8.52456626794574   -0.51205429828824   13.14716549146732
H        13.62072328815443    3.36771405974195   15.64769088941372
H        12.41398227479833    4.42073678504768   16.40823295128193
H        12.19396887353169    2.73531321092169   18.28790978142669
H        13.40225479331386    1.72685072385651   17.49001142490340
H        13.85766384046381    3.30750785190324   18.13068174409161
H         9.07658845186493    2.67603395178422   15.66091264748598
H         9.84825401421522    2.08106804551210   17.12578858732225
H        10.49695604692856    4.38479783253317   17.78298940900807
H         9.84404374656415    5.03355735513235   16.27742102446820
H         8.76794051983284    4.30543062451544   17.46314182716446

