73
CSD_code = RUHNEP | q = 0 | S = 0 | Stoichiometry = C37H29ClN3PPdS | MND = 4
Pd        3.21681805933708    3.86528853254462   13.43884348196168
Cl        4.18760030049138    1.90761818608695   14.10777922890515
S         2.33718044610163    5.88538970875685   12.68370597089266
P         2.29577308577485    2.64660524228554   11.79852412861911
C         5.45388245447846    5.23101237436860   16.92129506552790
C         4.92925916203506    6.42156849033309   17.43562612748690
H         4.03401018963217    6.82613345069716   16.99176029068547
C         5.50872972311791    7.06001008416414   18.50678948416668
H         5.07371141221108    7.97134569862681   18.89252453330840
C         6.65471882149251    6.54251904744883   19.11573657273040
C         7.26956651801279    7.18531779413716   20.22699426854735
H         6.82160822187621    8.09732503312647   20.59642749826105
C         8.37978824534662    6.67465845859935   20.80868321379516
H         8.83929081296073    7.16779196442746   21.65379427449497
C         8.97679912965294    5.47508400444038   20.32376845066840
C        10.12409433733095    4.93305328186836   20.90565623149825
H        10.57252139425807    5.43586041127442   21.75077691653824
C        10.68531811653830    3.76893872767986   20.41319698760936
H        11.57325456474618    3.36409291072343   20.87713613118730
C        10.11994810085302    3.12153459704613   19.33086134622057
H        10.56346369910884    2.21384183275587   18.94723004460484
C         8.97145350060873    3.62776171757096   18.71868110498878
C         8.36595482522941    2.99561818161542   17.59714141954300
H         8.82483369587559    2.09754530749786   17.20857224948002
C         7.24883424905526    3.49740370219568   17.01766058536695
H         6.83519185535031    2.99507199116625   16.15763673050332
C         6.61875032058393    4.67828936822681   17.50909712786216
C         7.21675436357288    5.34271794618638   18.61073572912310
C         8.38498616401538    4.81611620969688   19.21699109954293
C         4.79095125440977    4.52836293770732   15.84298357747856
H         4.89372630013083    3.44884026285148   15.81756450778208
C         3.20379177631758    6.84435862040762   13.84873273188590
C         3.59852699033339    9.12816301370853   14.65238488195080
H         2.84735260945883    9.39930733304655   15.40122572624891
H         3.91614310610719   10.02830780371329   14.12713491169897
H         4.45102201649972    8.67634792220824   15.15526548836596
C         3.26465274827944    2.92075126176299   10.28659643766290
C         3.00731724491336    2.26072993267602    9.08844450966544
H         2.20427264383879    1.53803003662704    9.03433465524095
C         3.79592858971527    2.51617350545141    7.98151828942640
H         3.59504373079061    2.00839328491235    7.04938631573724
C         4.84797932409164    3.41496561049829    8.06748381885137
H         5.46113905611578    3.60880442557343    7.19981533769057
C         5.12501758019468    4.05314671298920    9.26582422511017
H         5.95656906174899    4.73882921610781    9.33421604978582
C         4.33697210653917    3.80583493260179   10.37539340773887
H         4.55581242814896    4.29196920313605   11.33701235133106
C         2.08741528991697    0.84306124713184   11.81242345663949
C         0.86292956286576    0.24724381828799   12.09191071904212
H        -0.00846776468843    0.86090229282232   12.27511274276496
C         0.76287147487302   -1.13228126034902   12.13392291862511
H        -0.19028047505373   -1.59339213500036   12.34832961386239
C         1.87968471444785   -1.91921695796413   11.90863178646419
H         1.79809298104091   -2.99542960860541   11.94816179761772
C         3.10386235872342   -1.32654354413668   11.64045700762124
H         3.97737655309250   -1.93954901586865   11.47502744097350
C         3.21092948114517    0.04967436584079   11.59360239741014
H         4.16554444605439    0.52048646753988   11.40163193816901
C         0.60383826291808    3.25717970325992   11.52080095121885
C        -0.00877817340877    3.43480900497744   10.28940581089225
H         0.52773292685636    3.21303541117853    9.37858498625792
C        -1.30445096065050    3.92147643685114   10.23567458929835
H        -1.78125270638155    4.06900921223929    9.27751168329990
C        -1.98756255235017    4.22449229249846   11.40138218334825
H        -2.99713661961399    4.60502884409350   11.35024505345278
C        -1.37511477423253    4.05473132726947   12.63434299428226
H        -1.90519376337869    4.30458794160200   13.54172751031893
C        -0.08003428345703    3.57902778432858   12.69362833087436
H         0.43574680459390    3.46390468113290   13.65354662686816
N         4.07785848296148    5.02828616071347   14.88397650089348
N         3.93733458372769    6.36680729031711   14.80769834155645
N         3.08148671465052    8.17661544774010   13.70409572512768
H         2.41515309823497    8.49252252002931   13.01682337496712

