55
CSD_code = RUHPOA | q = 0 | S = 0 | Stoichiometry = C17H31Cl2N3OPd | MND = 4
C         1.19187905994797    1.74465934571898   11.35991706616763
C         3.65409941794538    1.66910441229695   11.25541420126941
C        -1.49031760363923    2.77506542826754    7.65944623320952
H        -2.19727038863118    2.76309122091505    8.48363156937966
C        -1.83857939309154    3.23832843437895    6.28052786159852
H        -2.34994914096434    4.20060979698976    6.29718771598368
H        -2.50612176405426    2.51357763664349    5.80732952470045
C        -0.45897329488078    3.29166817798845    5.60881439214343
H        -0.09840770011285    4.31995098554542    5.57001018630669
H        -0.46957113773307    2.89104012799504    4.59784303587544
C         0.44542744369791    2.45131807820122    6.54187221163931
C         1.80751171589378    3.08904738005092    6.81340323070620
H         1.68277217133497    4.08569858799590    7.23626405235187
H         2.38185107354189    3.16226527075125    5.89309947324281
H         2.36220773566830    2.46944071904420    7.53056254929762
C         0.62047251644120    1.01763234623941    6.03153317330252
H         1.06295975531677    0.39818272703654    6.81190343688664
H         1.26472394887095    1.00735498141497    5.15607036755680
H        -0.34375678148312    0.58774880828033    5.76939797485685
C         2.18152342979756    2.00098875434353   13.39652046188841
H         2.63185373029306    1.16883277686406   13.95112214179514
C         2.66558550259579    3.37778591078651   13.89327199209752
H         3.47802761505204    3.76670665605072   13.28697557875346
H         3.00866158415719    3.29518789758758   14.92494055960742
C         1.41259885244442    4.24154966315759   13.79363831738391
H         1.43237426136933    5.09012334195623   14.47266003415901
H         1.29234135953495    4.60931624421610   12.77166263827535
C         0.27708329438812    3.25975005039478   14.12186100602396
C        -1.05742215525169    3.69041168940957   13.52590834368805
H        -0.95795661456380    3.90942373812174   12.46436315252653
H        -1.40297145458799    4.58877347015548   14.03056778724228
H        -1.79674797519498    2.90365126023271   13.65224805496484
C         0.12854717347086    3.03795860758794   15.62849375748414
H        -0.17206169524803    3.96343968269146   16.11220971989240
H         1.06130790551295    2.69719688289786   16.06867297082525
H        -0.62996105511104    2.28232118126975   15.81186396902001
C         3.51473307675773    0.58966964525167   10.17491360221772
H         2.82050184832309    0.91755585349247    9.38650524568203
H         3.12989607659674   -0.33548892421317   10.59898210479188
H         4.48423828164591    0.39204094197929    9.72527026770408
C         4.74800121230217    1.24459619051466   12.23641223184878
H         4.88396747802452    1.96809387154122   13.03499808483828
H         5.68753347460820    1.15687230794444   11.69739308419338
H         4.51593130957295    0.27614375080353   12.67327848823571
C         4.00034167797905    3.00168155480172   10.58133170565860
H         3.13960142404533    3.35364764362308   10.00791803484591
H         4.84257056693399    2.86715149750566    9.90810120660199
H         4.26275890327436    3.76706238163858   11.30670987700781
N         2.36798310371059    1.79018194048950   11.95296271328140
N        -0.29599076409830    2.38319540921075    7.79908244340498
N         0.73162518051444    1.97090457043470   13.55953001055899
O         0.22163641345823    1.79470748611992   12.20983084850346
Cl        0.64367904576953    4.23745277533282   10.00451060225982
Cl        0.16710736085137   -0.26186915584007    9.29287560100965
Pd        0.52644293702136    1.96929798587160    9.56468510528774

