115
CSD_code = RUHQAO | q = 0 | S = 0 | Stoichiometry = C47H62N3O2Y | MND = 6
Y         5.96103420786051    4.53754283129023    7.63575821015966
O         3.73056798407305    3.46430918415631    6.56918299673256
O         5.64834216431346    6.35955085082948    5.66496464700685
N         6.38802874007848    3.24018639916992    5.41743147126650
N         4.62657961271007    5.14100974953644    9.23951217580303
N         7.17944039795562    6.19147295775084    8.46620745811814
C         5.92769334112797    3.50267922831999    4.21010062799277
H         5.22359785978214    4.32205382901454    4.14116552917176
C         6.29080990288856    2.79022530631516    3.06903817441908
H         5.88183435279769    3.05714546373853    2.10652981962074
C         7.18174907046008    1.75165804399043    3.20515384797230
H         7.50549853009243    1.17632603435562    2.34887672913005
C         7.66885548451327    1.42635547187172    4.47772024236950
C         8.57505951217248    0.34983438904004    4.68257775096871
H         8.90136682347463   -0.21562077557076    3.82120406963288
C         3.06155591733326    3.45113908350190   10.00427259827933
C         9.00903658952989    0.04881340178186    5.92784227559924
H         9.69914438816870   -0.76866175101013    6.08622251654525
C         8.57527146985737    0.78587748746076    7.06632281602861
C         9.02955345118574    0.44623247726816    8.34776804182710
H         9.71291013864937   -0.38401908263237    8.46275871640817
C         8.60726311227343    1.17055915072749    9.43337697339210
H         8.96146067764287    0.91480361824687   10.42313224224971
C         7.72493581456051    2.24214097738205    9.26834716353211
H         7.43180836943164    2.78298734364779   10.16364820052686
C         7.21922081897531    2.64029257461822    8.03109898012786
C         7.67985931372615    1.87705865480489    6.91801046434628
C         7.23337705862196    2.20037200191157    5.58504592985080
C         5.22431438476105    6.19794142387957   10.04247931674291
H         5.00594827465936    6.03930610974417   11.11410332708960
H         4.83648988974620    7.19900340140602    9.79450584497690
C         6.75989925377720    6.22730457963586    9.86187689594668
H         7.16900327120207    7.08959465525003   10.39840073954791
H         7.16484183734107    5.32303101590881   10.35967600260955
C         3.31991406391680    4.77542651145458    9.55555141779618
C         1.77020440981705    3.04701724035814   10.29097868439952
H         1.58683263502259    2.04464195171933   10.64896770238681
C         0.69980315924532    3.91553576535527   10.16735883356728
H        -0.30144005791104    3.58970327248925   10.40995186067459
C         0.93394867911997    5.20813329485835    9.74606280035166
H         0.09884004880156    5.88851224034036    9.66232937483311
C         2.20914536015488    5.65006512961833    9.42463869745300
C         4.22063311030430    2.51181640443116   10.26257611172068
H         4.99702217249832    2.73007912242219    9.51386659575811
C         3.87886935119375    1.02378893591922   10.16987397790081
H         3.32033874274750    0.79475030948583    9.26536246826099
H         3.29565476747732    0.69910262316833   11.02931924449312
H         4.80063435609650    0.44414122802561   10.15586354480870
C         4.79924579946966    2.80627022220156   11.65179212419620
H         4.03031425711853    2.68168907492441   12.41294605419139
H         5.16885088991899    3.82651156687883   11.69834186585972
H         5.61946867067821    2.12583504572889   11.87362550532365
C         2.36612556923597    7.07454584057117    8.92956771156600
H         3.34831574411181    7.15581194502034    8.45691112826411
C         1.32905660363593    7.47141003306539    7.87193595927924
H         0.33432364433571    7.55316803693989    8.30222296768385
H         1.28881169959430    6.74883955500897    7.05921640887700
H         1.59016494946928    8.44276295581149    7.45396214983437
C         2.27364481268839    8.05737569346774   10.10220914537630
H         2.98022560766070    7.79874167881362   10.88639904758140
H         1.27366341359982    8.03036427135839   10.53055697376140
H         2.47798818972578    9.07360312795930    9.76808177461233
C         8.04659351006633    7.13940568094240    7.97431402426848
C         7.96171195177485    8.54548749590471    8.19870607047356
C         8.92254603534539    9.39450239733746    7.66932371168269
H         8.85711837347655   10.45341869731790    7.87552172234971
C         9.95362071305682    8.94100552196420    6.87453830712915
H        10.68682874516919    9.62549269887129    6.47415381784709
C        10.02958229876807    7.58560193714213    6.60642590678134
H        10.84054847995299    7.22365629983541    5.99286006270370
C         9.11835842970033    6.69350903219113    7.13568732335437
C         9.32410014044541    5.20856437395863    6.90866536657453
H         8.32981516932385    4.73686018725965    6.84277881058567
C        10.04683570864059    4.61781819480258    8.12400871765251
H         9.46254056896937    4.79540666349550    9.02368288076687
H        11.02138414725779    5.08873125652422    8.24238213580756
H        10.18680892711069    3.54472015947521    8.00473517157800
C        10.08069202390342    4.84057962232210    5.63088030433714
H        11.13703705256451    5.08755845370772    5.70977544959918
H         9.66740908226233    5.34928538529729    4.76118765741261
H        10.00324027271591    3.76628476504453    5.46580095705932
C         6.83255142733216    9.21290133324499    8.96183695432393
H         6.05254357274062    8.47510310599736    9.14452258074574
C         6.18213627011849   10.34811855604544    8.15881076852708
H         5.93550188748976   10.02397557360196    7.15107036243281
H         6.83795680530671   11.21184836910258    8.08476469800547
H         5.26511240192589   10.66816658499325    8.65211091208296
C         7.31447297580210    9.77511015893332   10.30373748126257
H         8.04659687876402   10.56328218746352   10.14101475152062
H         7.78592924487057    9.00513114278887   10.91078241842008
H         6.47831798724151   10.19155409330018   10.86364361494116
C         3.49556562942350    2.06323833881462    6.46218622997231
H         4.16666638705314    1.55490051366525    7.15637332181543
H         3.71601817945020    1.72668872898550    5.43685241621710
C         2.01561363097125    1.88476753693442    6.77758785580042
H         1.61925631791070    0.93755361147019    6.41999906673914
H         1.85204227792985    1.97262362853236    7.85188461801149
C         1.41868999231023    3.09603848375869    6.06658168100545
H         1.25699946468305    2.87709225948134    5.01005900998721
H         0.47839998007628    3.41749711232114    6.50746875184184
C         2.51633990057161    4.15065072753675    6.24324335995911
H         2.66815761296536    4.73902825378002    5.32961060925625
H         2.29022675213353    4.81852002191812    7.07896100720132
C         4.76171688898568    7.45194565668663    5.93390510269188
H         5.00999207990615    7.87892083584916    6.91309472391507
H         3.73971329583068    7.06378834799834    5.95380443135368
C         5.00165330713423    8.47758933084554    4.83200043864998
H         4.71093806583345    9.48204447119350    5.13022986455186
H         4.45402090284179    8.20591157593286    3.92770311429839
C         6.50353747411656    8.31942394325484    4.61552119579179
H         6.83848663981280    8.67225326394790    3.64305318911451
H         7.06155995122222    8.83935240818580    5.39475883303736
C         6.68151191455770    6.81205282226992    4.77464097572238
H         6.55576477045145    6.29703871042038    3.81224515814258
H         7.65488483625530    6.55755032258815    5.19692917787679

