84
CSD_code = RUHRAO | q = 0 | S = 0 | Stoichiometry = C38H40BN3PtS | MND = 4
Pt       13.05738173226169    8.91639086349316    6.55792773389189
S        11.95814532932943   10.19545028850478    8.31684424539550
N        12.59405909885448    7.03540375302293    7.46361568331022
N        13.66173529331883    6.33999291174275    5.56389890457534
N        14.27386658139672    4.21377078731688    4.60010440942378
B        10.68601583880385    5.36399145449226   10.29792525061764
C        12.25295062477718   11.97719676915829    8.14767318625110
H        11.51213468090527   12.50264465023207    8.74537431122392
H        12.19487763405564   12.27107351525067    7.10375936994719
H        13.24893864121908   12.17921955925194    8.52796100215231
C        10.32291169424359   10.11800398386145    7.52325717468700
H         9.63826950256340   10.75635811433355    8.07655362489709
H         9.97867845801927    9.08917898501895    7.57722598526248
H        10.39824196521196   10.44143341977023    6.48682443424838
C        13.56308074369538   10.56731564862241    5.56127807022787
C        14.71549812402412   11.27099263832734    5.91624724630814
H        15.37857652604898   10.86196248398152    6.67292289338669
C        15.03372803925419   12.48085527099591    5.32303527067270
H        15.93208912861891   13.00784585694713    5.61538250776245
C        14.20379952612866   13.01935768115336    4.35398783638013
H        14.44917793811268   13.96458879114818    3.89044272513298
C        13.06253192029444   12.33341054734471    3.97638321447738
H        12.41552350546425   12.74329243589405    3.21210174079267
C        12.75018146564820   11.12121409877664    4.57107030911371
H        11.85995423246255   10.59102048938631    4.24537653571269
C        13.82918489382409    7.69395883507127    5.19821588704741
C        14.50191077412532    7.72669493222372    4.01130672337356
H        14.78197882271809    8.60905595902385    3.46932057813894
C        14.77405643608260    6.38393047172706    3.60675856487321
C        15.40842551585478    5.77784563476999    2.53019867985131
H        15.84549569564306    6.36373676302373    1.73488329792082
C        15.45910002780334    4.39305725829288    2.51858244011759
H        15.94057496091358    3.86839282136561    1.70752864914440
C        14.88698227494750    3.66763017768063    3.55830232978817
H        14.91856510839815    2.58645155077534    3.56265810102954
C        14.23028215588284    5.53405124676712    4.60548322064920
C        11.90864023396811    6.79202949717107    8.56874526314082
H        11.61317412508398    7.66137918068826    9.14450449220175
C        11.57221235452543    5.51914659028783    9.02480506097428
C        12.04097245085102    4.44673686365361    8.24732459708033
H        11.81614988615490    3.43476171586824    8.55309947663332
C        12.75655122052503    4.67502874277441    7.09448841524276
H        13.12283534219465    3.87949847463001    6.46632615194115
C        13.00646062519828    5.99774908533401    6.71337698764397
C        10.80593985698668    4.07790719386643   11.17876562352392
C         9.67460793847415    3.32335705370828   11.53310178682937
C         9.81110526823480    2.15160100930869   12.26217844899095
H         8.92689387337155    1.58200995485149   12.51385935222045
C        11.05155315528003    1.69657798535038   12.67930741604572
C        12.16746531490873    2.45444239674895   12.35385859970716
H        13.14307299969235    2.12553997866194   12.68533182853215
C        12.06224439278686    3.62111582779160   11.61497579423064
C         8.30132337670608    3.74221544120571   11.09623413472764
H         7.54066856290816    3.18509108534661   11.63810924720440
H         8.16626955415770    3.54997335358703   10.03184406674981
H         8.14789346280727    4.80506407370228   11.26496832960868
C        11.19619324889489    0.43471678799399   13.47340009237565
H        10.24620336314960   -0.08800693469863   13.55209039992549
H        11.55140638670573    0.65991195031343   14.47894315367909
H        11.92323125317544   -0.22777910785975   13.00571644881950
C        13.32345703787686    4.38685670010416   11.32577672921008
H        14.03047153629968    4.26971995110245   12.14518789520647
H        13.12666146346057    5.44531997560127   11.18128380331864
H        13.79675979179328    4.00405953765422   10.42100002576671
C         9.73840016687240    6.58428777016256   10.58399022170474
C         9.84879107027988    7.32618929714077   11.77130239254688
C         9.11650533616523    8.49023217453808   11.93955609802138
H         9.22331275415138    9.05474220396067   12.85578738333911
C         8.24713750347935    8.95073727416258   10.96063287070521
C         8.11340624782256    8.20272736732634    9.80224989859624
H         7.42538566121995    8.52944399044048    9.03350896015350
C         8.84426355048754    7.04034855808524    9.60430566185755
C         8.63148490089672    6.27816505545761    8.32464738732720
H         7.58057471566250    6.30355901448014    8.04061728738726
H         8.94352022041463    5.24253984353214    8.42215971969972
H         9.20398568526503    6.72512677074825    7.51039442291285
C         7.46285752944764   10.21032409185531   11.17139532237330
H         6.97473228468533   10.52576447101425   10.25204400610677
H         8.11114302828891   11.01260525571074   11.52075275214125
H         6.69508364292789   10.05187296224232   11.92883000870089
C        10.79296245114281    6.89443267374909   12.85462713319960
H        10.58267467484929    7.42361165651464   13.78108817513464
H        11.82238118954517    7.10974622893111   12.56773830192620
H        10.71437441932290    5.82474832648637   13.03215623686237

