117
CSD_code = RUHSAP | q = 0 | S = 0 | Stoichiometry = C60H51Cl2OsP3 | MND = 7
Os        6.99076628947239    5.70218444452263    7.61940558747567
Cl        4.87449277208898    4.72145662102951    7.13339098732899
Cl        6.57687022426978    5.31595863957391   10.04639873086428
P         5.81508950285500    7.71888497655691    7.32096625132091
P         7.78791447159185    3.56042626683096    8.11613455154327
P         8.86634628722974    5.93847291763138    3.38761913615469
C         7.29192706667395    5.58883666002679    5.62860091365823
H         6.56968882395435    5.16326328959164    4.92946317038644
C         8.48237835513496    6.01838813321446    5.10859545114214
C         9.41250489535567    6.60927306001899    6.07871042602694
C         8.89389577411557    6.57278739353851    7.29750475290403
C         8.73062753306567    6.74070813180660    8.63267957799095
H         8.42847433519915    7.70218461342966    9.03829989158596
H         9.24658677274701    6.10851602647664    9.34731219654395
C        10.74232887270218    7.20291597672918    5.71222708764685
H        11.39875703712898    7.21010816869624    6.58016184863814
H        10.62927499220089    8.23218618549223    5.36465214268103
H        11.21658765043697    6.62866003057248    4.91365133252686
C         4.14644224944520    7.89698556318773    8.04787813111512
C         3.78666193706533    7.12838269820174    9.14840093810745
H         4.48772817974861    6.41601487782560    9.56035354969581
C         2.53291514982403    7.27428681340006    9.71624720193703
H         2.25880370664544    6.66915765254356   10.56785030692700
C         1.63449785829490    8.18851236947097    9.19441551233842
H         0.65389861031587    8.29936101974091    9.63495653673259
C         1.99390044189922    8.96482286162211    8.10376168245247
H         1.29621589009189    9.68325489532780    7.69666067126824
C         3.24304330169797    8.82297631014295    7.53019136835685
H         3.51749007794229    9.43253961882370    6.68000148029470
C         5.40084845881622    8.16079603578141    5.58540417401519
C         4.64821411435372    7.22875069116720    4.87232521451294
H         4.36210230946408    6.30484308955946    5.35542930074650
C         4.26011290007327    7.48442537239793    3.57175373886606
H         3.67311687342237    6.75400020673782    3.03419074947353
C         4.61378428284486    8.67730949911111    2.96137375599016
H         4.30571673822797    8.88380092395743    1.94647804507349
C         5.34984314253683    9.61316663854346    3.66556940511547
H         5.61564294661641   10.55312403049302    3.20140834000958
C         5.74075579877198    9.36074291147555    4.97116135441607
H         6.29647440726692   10.11430086755590    5.51082607133993
C         6.61614107086443    9.25374883509607    7.90675024753851
C         7.82024821248346    9.63779255766211    7.31500420313749
H         8.22783161145791    9.03519022111849    6.51376541452020
C         8.49362862376572   10.75917260351547    7.75871503444804
H         9.42304393734916   11.05085456335863    7.28979483751255
C         7.98189257735067   11.50341391300342    8.81081833444621
H         8.50861151155635   12.37945247788080    9.16022558690844
C         6.80210410019219   11.11265475474823    9.42062301135465
H         6.40915979553276   11.68174071640531   10.25063387634150
C         6.12197544125746    9.99154132784446    8.97571207568737
H         5.20672733994435    9.68670903707206    9.46238871606923
C         6.82542903085521    2.24511853124423    8.95683546278196
C         7.47278508855048    1.02556593274506    9.15765248370240
H         8.49701781165180    0.89865652024647    8.83134893699078
C         6.81770312934867   -0.01881183058552    9.77850044092664
H         7.33128858041247   -0.95705549179702    9.93562008780183
C         5.50562418558116    0.13636105307643   10.19884581227346
H         4.99465482460844   -0.68169935240331   10.68639824163132
C         4.85650455240153    1.33942816400470    9.99061284410421
H         3.83333960439232    1.46604092677929   10.31290619948303
C         5.51028115719992    2.39181293165907    9.37130406867091
H         4.99400298947861    3.32578626473437    9.21918732048433
C         8.21665714995422    2.51311969041532    6.66129383338265
C         7.16028318706359    2.31690862831073    5.77410235687027
H         6.21613279321743    2.80980043994208    5.97005408243949
C         7.30943768679122    1.49659082000569    4.67222248915856
H         6.47587806409625    1.33396020873895    4.00323280738841
C         8.52046789206081    0.86453525886335    4.43620782008780
H         8.64206419969181    0.22322078168856    3.57477419670902
C         9.56929214131452    1.04510546295889    5.31965814263791
H        10.50655125454518    0.53272960414165    5.15303384338306
C         9.42013433527053    1.86028612611277    6.42968473114739
H        10.24523014336394    1.97048466672773    7.11971986110710
C         9.32544529491109    3.54065504583690    9.09242255682305
C        10.50452914915958    3.98653674847604    8.49733171568083
H        10.48332531131239    4.31141747281948    7.46487998605026
C        11.67763308043635    4.04573683052418    9.22517525580875
H        12.58963652672471    4.38496285987492    8.75359606450533
C        11.68050385494825    3.68275134941563   10.56308357545085
H        12.59661271637552    3.73095810976828   11.13387934157328
C        10.50346096435903    3.27908506424661   11.17085443894372
H        10.49836167511638    3.02146355099850   12.22001020079651
C         9.32856595791944    3.21010398691075   10.44266339893388
H         8.40697400583958    2.91597238973788   10.92349070702570
C         7.40599144253926    5.54011788465909    2.40938861881919
C         6.88964712770327    4.25345176511199    2.54874685401987
H         7.38023077637969    3.55003523706122    3.20874905076541
C         5.75613840509735    3.89198730253434    1.84628724419719
H         5.34438891399502    2.90096480311053    1.96214299908951
C         5.14969002398874    4.80136144934329    0.99365092832417
H         4.26632244775662    4.51583690112071    0.44220496473171
C         5.67424989432380    6.07494763053628    0.84550949710877
H         5.20353212499991    6.77890567736578    0.17568283614849
C         6.79870991508416    6.45369113911420    1.55723956522962
H         7.20171638212515    7.45061837241165    1.44944195148566
C         9.50196338661789    7.52560603458492    2.78457821141231
C         8.77871622646894    8.65255669523975    3.17034783103087
H         7.88793013029476    8.52746970653640    3.77361462556188
C         9.20765578981800    9.90899355820220    2.78871103965749
H         8.64697329717764   10.78224004770779    3.08677423053659
C        10.36298096390908   10.04469350939749    2.03321244755973
H        10.70259699535259   11.02658187824163    1.73954799245866
C        11.08890630261051    8.92437935575632    1.66181361972271
H        11.99244802178557    9.03497696355723    1.08081274173640
C        10.66443665724405    7.66124863899729    2.03664346843453
H        11.23465986983697    6.78698926745513    1.75511089872011
C        10.07390158737086    4.64891575940288    2.96420163202813
C        10.27897962463465    4.29186630289004    1.63358927238950
H         9.72792893288878    4.79878941181488    0.85200761166983
C        11.18192606649458    3.29197175049174    1.32623103726432
H        11.34415048533926    3.01139819727163    0.29601926710787
C        11.87953306380647    2.65037459697581    2.33898674831841
H        12.58817964254585    1.87390815663122    2.09269354535814
C        11.66342945516100    2.99523058062260    3.66302899985497
H        12.20285873154251    2.49105032414074    4.45006144268368
C        10.75162411775479    3.98582385792867    3.97939996258094
H        10.54860960498821    4.24399100703607    5.00904265603217

