101
CSD_code = RUHVOH | q = 1 | S = 0 | Stoichiometry = C56H38Br2CuN2P2(1+) | MND = 4
Cu        5.71729511661686   11.39969090583731   13.74482009738962
Br        1.73157786900006   13.84420234794925   10.28221858464982
N         6.84486952404118   10.07479466702567   12.52823297792379
P         4.44501557786444   10.31177932492996   15.29954776399292
N         4.83418334346658   11.78641849205424   11.98815289243506
P         7.30004138991129   12.38779211570598   15.03874167122964
C         8.18132301891054    7.68832999730707   15.96705237367020
Br        9.88709282989260    7.35373487789254   12.40216099897452
C         3.75578432204641   10.77592936940024   16.91746314378228
C         5.89176775601833   14.65848445353837   14.47486867088533
H         5.07109659815135   13.94971295902507   14.42801730004708
C         6.84920947858772   12.19176176092610   16.79318274547671
C         6.86137528343861    9.68936052152166   16.49937827578957
C         5.82546146279728    9.19771802353944   15.71708377170514
C         6.68770489571188   10.91893098853851   17.31162958354083
C         7.16652499072545   14.18078484083029   14.77367981982836
C         9.09770551323303   12.10207261011724   15.03477644524311
C         8.05380613819510    8.93031095937468   16.64581657358900
C         6.35987366336629   10.09719522963288   11.27599879944930
C         5.27651600006281   10.98527397200871   10.99694549418654
C         6.37071288867335   10.75422785660350   18.68931843158117
C         5.94948209159893    7.94322799694591   15.08557197274472
H         5.11846109830556    7.55905247123219   14.51166970177514
C         3.18612350186196   12.65295407402126   10.51375844189910
C         9.69087037743453   11.76274647672110   13.82159644348790
H         9.07716230548325   11.71519713849990   12.93050948621846
C         4.70789456348108   10.99643206570940    9.70383236061154
C         6.63928662859110   13.32407172306069   17.60851161339075
H         6.76036011838149   14.30878681799499   17.18111001283657
C         3.16229738479419    9.24941885952248   14.56530737745535
C         3.62827049912385   11.86147550217839    9.47362886064532
H         3.16014949544940   11.90424698095522    8.50207776823565
C         6.15331250709312   11.90252847551570   19.49442664820863
C         3.82234027723916   12.59247514275689   11.75795600720205
H         3.49221327771435   13.22197341094397   12.57158770220658
C         7.09014044575502    7.20541092076138   15.21415505748744
H         7.17378348773441    6.23847431682811   14.73926705068486
C         5.68623420118635   16.00513136142524   14.24959288333181
H         4.69632705112165   16.37541588997967   14.02779030637967
C         8.24147019758200   15.06078292914592   14.81904557562505
H         9.23489825091259   14.69470872995851   15.03601457906077
C         7.85194266848932    9.29419336786421   12.82631756747735
H         8.22270759139208    9.32820558669144   13.84089545089665
C         3.38926244340828    8.82808407675660   13.25425117699130
H         4.31933095385401    9.09784662991201   12.76845557761026
C         1.95193246596944    8.94453199741186   15.17814773507288
H         1.74484708571640    9.29193691258950   16.17952777985944
C         6.28915020627073   13.18218347181751   18.91787631008329
H         6.12377966676821   14.05190967104960   19.53653510788649
C         3.47448864524728   12.11353108823419   17.16990404117556
H         3.67114539052572   12.85150768194702   16.40324085873473
C         6.75952256228588   16.88218658914429   14.30474905018198
H         6.60361677249880   17.93491148546725   14.12570898181236
C         9.13098391631181    9.37455502755408   17.44330884597591
H         9.02536818580283   10.29450961342638   17.99634782608257
C        10.28616400316960    8.64972604766515   17.52586787105886
H        11.10296116094846    9.00345201233828   18.13628586254589
C         6.87976343867360    9.27210762987330   10.25256772119126
C         5.81375529136247   11.73925968912996   20.85267964411011
H         5.64596320003795   12.62253244216275   21.45112593244362
C         1.25047625238103    7.75369275509016   13.21024261417260
H         0.50861209997350    7.16908600362176   12.68844149717174
C         3.51394330765665    9.81585889485103   17.89741705775230
H         3.74057382700637    8.77673527387764   17.69940434361761
C        11.04775361872490   11.50708662747589   13.75853988980188
H        11.50566828712230   11.24163806048665   12.81715383961942
C         8.43783060691780    8.45144982466379   11.87435157698832
C         8.03104303801465   16.40918648619638   14.58454475628599
H         8.86506578961841   17.09363193904987   14.62161133535238
C         6.25062070286860    9.48109778969854   19.28845795802443
H         6.41959556757760    8.59803352909681   18.69105593147852
C         9.88001193187399   12.21114576058414   16.17978997818095
H         9.42723180540609   12.50989153599437   17.11491236161301
C         2.44522150480089    8.07554410005127   12.58424216377747
H         2.63548800074904    7.74543020630669   11.57311563054173
C         7.95102003828554    8.42815280491827   10.58407160153603
H         8.38150721232545    7.77746469019989    9.83771586146796
C         9.38572101699730    6.96318897211127   16.07531820746327
H         9.47267365997817    6.02456436386890   15.54846461117056
C        11.81974453060466   11.59237305802612   14.90654325871325
H        12.87774072251741   11.38512233013563   14.85983680744235
C         6.29453863309572    9.32390297571002    8.95404125343217
H         6.70242443731008    8.68684607030517    8.18423580910854
C        10.42097986333318    7.43897129540930   16.82948599329015
H        11.34172240551949    6.88150808415334   16.90446226252205
C         5.93507345237084    9.35637741065518   20.61246926219083
H         5.85734357339367    8.37635344842663   21.05859928337026
C         5.70861278156516   10.49290016069416   21.40243813727651
H         5.45550065980369   10.37424735515175   22.44489560972459
C         2.71839783888231   11.53580795360495   19.36877571266955
H         2.31632632318737   11.82996719922002   20.32605166125271
C         2.96010503744463   12.49204439123514   18.39642911473082
H         2.74780030073687   13.53181988304999   18.59414655557256
C        11.23767178608935   11.95540802615206   16.11027238788388
H        11.84465309964855   12.04174785068745   16.99879292819357
C         5.24745820887504   10.14434499125812    8.69504306839144
H         4.79915671300582   10.17387110978623    7.71373476379673
C         1.00627533748991    8.19391202518714   14.50014685806817
H         0.07090619563306    7.95453127159010   14.98304407103849
C         2.98996902839287   10.20003993189749   19.11674214804000
H         2.79803973253183    9.45723498056689   19.87627223126939

