64
CSD_code = RUHYAU | q = 0 | S = 0 | Stoichiometry = C22H30N3O5PSi2W | MND = 6
W         3.59826030956320    2.22914754745451    2.63123599331029
P         3.52114458965255    4.41839993508708    3.73847250847070
Si        4.51610582238521    6.69667880522204    2.07313927045082
Si        1.68261444460471    6.90178223577391    3.81736104687852
O         3.87931798786621    1.20145030519784    5.58009998211300
O         6.73374570848071    2.16066625316479    2.66374192005791
O         3.25439907841262    3.60158438707215   -0.17058270544722
O         0.47829365218183    2.33266587781029    2.96580281917388
O         3.55631458267715   -0.59129989897473    1.27529664028526
N         4.78605725588246    4.93135864979373    4.69938927975888
N         2.44729975013916    4.12850580661680    5.00646586561227
N         5.33459263653737    5.01029154843736    6.94576376610612
C         3.75827335768048    1.50190058531709    4.48187405388036
C         5.59369525269603    2.21517273145022    2.59010662701932
C         3.41348964582449    3.08275553237518    0.83845402112044
C         1.60777228588072    2.27480195370530    2.81242721590933
C         3.57362320248766    0.44238875028880    1.76670635075816
C         2.94372299294697    5.86882961019117    2.80724873889816
H         2.39184306005567    5.42815489803970    1.97210538418657
C         4.46353377804906    4.74928357905882    5.95536241531525
C         3.08742710629651    4.21745763012119    6.12563858545007
C         2.48864339880068    3.70373538079250    7.35471526483494
C         3.21107231001395    2.86448619835343    8.20259516882388
H         4.23473136442658    2.61829838410649    7.96392233628537
C         2.60508169820037    2.32202743811570    9.31946572404732
H         3.16571010170265    1.66295604799888    9.96558125865399
C         1.28154142431415    2.61475598225815    9.60737883276376
H         0.81353016284847    2.19261281398156   10.48410988120912
C         0.55568568575087    3.43809989235069    8.76191789154405
H        -0.47947211744044    3.65720605044696    8.97751556743436
C         1.14980485566147    3.97115931405766    7.63375097276287
H         0.59063649868064    4.60168180790884    6.95897005487228
C         4.93924301989589    5.42798846502759    8.26997577003025
H         5.26769161386931    6.45847407236908    8.43914360198543
H         5.40375592341965    4.78985325930475    9.02572588493704
H         3.86049975512285    5.38618848387023    8.38621897535870
C         6.68947079315282    5.36341178893997    6.58577516304762
H         6.94616171918956    4.87037159076896    5.65132228794863
H         7.36214724766957    5.03135557303174    7.37684263263049
H         6.80139587612748    6.44424651342516    6.45350701417878
C         5.87394199730717    5.42073187156711    1.69107771542136
H         5.55158180981246    4.69174755396559    0.95258550474871
H         6.14260627241996    4.88498181831911    2.59580805253674
H         6.77117196649929    5.89841873653173    1.30748418927947
C         5.22343373399541    7.97643555499238    3.29928603556169
H         6.07244595236229    8.49138213054969    2.86129879303737
H         5.56574165109922    7.48451762530615    4.20363548804200
H         4.49078836165030    8.72603223175044    3.57892466461704
C         3.99551385033504    7.54000427813246    0.44418698650149
H         3.24248209737398    8.30331909583248    0.60034376504125
H         3.59740661256443    6.82257595194239   -0.26607116274308
H         4.85291316744701    8.01541253190213   -0.01871420184196
C         2.34802510966486    7.40633744460923    5.53883454868738
H         2.05994901944075    8.42388583028483    5.78485525147349
H         3.43060538688869    7.34995758111881    5.57729039095769
H         1.95793155072391    6.75792992976585    6.31740897154821
C         1.30210151968699    8.49692537916067    2.84250172712954
H         0.96533927893069    8.27611086726662    1.83574062947140
H         2.16223855904678    9.15261624688958    2.76785405884845
H         0.50985669336351    9.04949351926960    3.33556975648236
C         0.05811630126090    5.91148298763918    3.96040702073150
H        -0.64580441728894    6.39830379560023    4.62983920739180
H         0.24023858439403    4.90770397709229    4.33178529491262
H        -0.42548289100735    5.81950727989930    2.99162324966520

