53
CSD_code = RUJBAZ | q = 0 | S = 0 | Stoichiometry = C15H29MoN5O3 | MND = 6
Mo       -0.69357049702101    0.12026132849763    2.00459336335950
N        -1.98110478037169    1.91682025126355    1.52877369113684
H        -2.60734002759240    1.89455928152207    2.34015011825183
N        -2.74847241162427   -0.68733816443907    2.38280687307895
H        -3.10087096976041   -0.00629110989230    3.06263515310209
N        -4.38947532566446    0.14111313865669    4.52984226564234
H        -5.26418288873642    0.35368629229297    4.05595897475119
N        -2.76853075956283    2.46882544870579    4.16354630530791
H        -2.03348843282174    1.90178650031207    4.58218219990207
N        -1.46095704691181   -0.35583717840794   -0.03003248309945
H        -0.93845358420600    0.10029281672155   -0.77341150188006
H        -1.43758308978063   -1.35794755377237   -0.20188910454536
C        -2.72874278575590    1.64548395002899    0.31470614707736
H        -2.19559546242443    2.10711412824138   -0.52837473960827
H        -3.74162555855061    2.08313331562057    0.34403777925725
C        -2.82308742814946    0.13754195797564    0.03136352778267
C        -3.54617017095524   -0.62379003816505    1.16477984669105
H        -4.52817339070570   -0.15517439888124    1.33058176790937
H        -3.72571562533957   -1.64619912513898    0.80590159509511
C        -2.83798554851611   -1.96394525482959    3.07552049122150
H        -2.05233098687159   -1.97775169135227    3.83394833547787
H        -2.63168162723101   -2.77481945210261    2.36882049185599
C        -4.19591978768226   -2.18837097431146    3.75655746321917
H        -5.00808230180595   -2.04067788104178    3.04017950056205
H        -4.25080754286440   -3.21755774509602    4.11375658850778
C        -4.38094396876772   -1.25247697855655    4.95199335291207
H        -5.29463657491082   -1.52756322100749    5.50509482087829
H        -3.53214990722638   -1.38348555024070    5.62874058090072
C        -4.17623533820124    1.08977253420292    5.60752475383910
H        -5.02054410453121    1.13037770794163    6.31597727374216
H        -3.29053587103196    0.76135486230355    6.15997643760818
C        -3.91252528164639    2.48878063026973    5.05576332536471
H        -3.76616478280153    3.17463961092079    5.90770101502942
H        -4.78247298413901    2.84512814830666    4.48937428898629
C        -2.21286139924973    3.78469878327347    3.88045207023994
H        -1.90598709363175    4.30186094317522    4.80510676517819
H        -3.00061311029201    4.38951965173524    3.41400945284443
C        -1.01256974170278    3.67419360382408    2.94020624687305
H        -0.50974855982582    4.64058222835936    2.89287465455460
H        -0.30608336665218    2.93732073725080    3.32740249721733
C        -1.41603077375739    3.25913471288438    1.53149349160787
H        -2.15095417014850    3.98684162589901    1.14499499318241
H        -0.53646216587158    3.27680561838606    0.87954077368055
C        -3.57207485205035   -0.09008674795799   -1.29218780145985
H        -3.58454158508692   -1.14891775700637   -1.54684248997061
H        -3.08680206378751    0.45080644356703   -2.10311942536705
H        -4.60128704453894    0.25489288335487   -1.22226376620003
C         0.24569589538514   -1.53284949008191    2.26207702396355
O         0.80931353505405   -2.51861261361793    2.42446563461788
C         0.97839391789081    0.91987484203115    1.50081056688128
O         1.97662450966506    1.40200056441328    1.20576836815383
C        -0.22873528304798    0.48925403722442    3.82464952201030
O         0.05458019581185    0.65413434673780    4.93038092266853

