73
CSD_code = RUJCUW | q = 0 | S = 0 | Stoichiometry = C38H30N4Zn | MND = 4
Zn        4.24408598845223    2.93951693796288    4.18378565788577
N         4.15031344479049    1.10643120712349    4.89074040199698
C         3.28732011971984    0.72807679167930    5.79918740536069
H         3.54374696797339   -0.16478213838582    6.37651775872335
C         2.06343813510446    1.29356777219798    6.15284874421236
C         1.33782928069757    0.74625882376001    7.23425500959137
H         1.70180856723902   -0.03845398243213    7.87377151281491
C         0.10402567182479    1.36773223067244    7.33513869859170
H        -0.65174322936970    1.15794242457354    8.06986220328215
C         0.00913425077034    2.29688579245157    6.31070879190315
H        -0.83568888342957    2.93354931863844    6.11443044359709
C         1.20676900321005    2.30885893379696    5.56403386889157
C         1.34242681254851    3.20299416163491    4.50252359388860
H         0.42262962566206    3.73524219206973    4.24393366259427
N         2.42009273962438    3.53683838548783    3.84545439645426
C         5.20909122674640    0.23413557961416    4.60863969553832
C         6.49706880737164    0.73367136989464    4.42783910943998
H         6.68199852014882    1.79033580028885    4.54788665719350
C         7.53986905097333   -0.11754472850148    4.11866357798096
H         8.53290641895222    0.28681196838516    3.98833123184004
C         7.31756898769040   -1.47806055477417    3.97839439425455
H         8.13397456822895   -2.14042000378504    3.73309221670551
C         6.03898183462458   -1.98148438178549    4.14728211052893
H         5.85345290202713   -3.03914170314169    4.02899753372384
C         4.99065948741474   -1.13679430882880    4.46039273403723
H         3.98900212357387   -1.53064407647646    4.56049788816894
C         2.28706624807945    4.46287784484792    2.80230593523148
C         1.29824106424002    4.32793840648674    1.82971475747821
H         0.62052104215935    3.48770578977559    1.87358489505522
C         1.21862165567221    5.23455947699237    0.78965934089494
H         0.45835910646836    5.11154220759891    0.03251569101473
C         2.10926796352245    6.29126825469767    0.71287714303819
H         2.04418783670831    6.99752074924754   -0.10103122889636
C         3.08844152558757    6.43507480116574    1.68274996012078
H         3.78445892870527    7.25963162267112    1.63057421689136
C         3.18217388921744    5.52731088132110    2.71916377708753
H         3.94540950269827    5.63638616864312    3.47806326280512
N         5.13846733362696    3.90530379344984    5.63124651676688
C         6.39289360337797    4.24383879944288    5.73686450794507
H         6.75156930258800    4.50344616589715    6.73724385706197
C         7.35888111064375    4.36524504820914    4.73504640180181
C         8.64618154693913    4.83233710005474    5.07559993271793
H         8.95161374439091    5.09764803878152    6.07250020774819
C         9.43819852972129    4.90139461554447    3.93930112071395
H        10.46292380344291    5.22320149898647    3.90232218808741
C         8.67497690883714    4.48457509041014    2.86183216645293
H         9.00917308432329    4.42216017233623    1.84112103317007
C         7.37609126757050    4.13381704388851    3.29728760807401
C         6.45775184848180    3.66499606102473    2.35755641962952
H         6.84203082028979    3.67277904541106    1.33452681535784
N         5.25191501761933    3.18727119079702    2.52530708832806
C         4.39437154183550    3.76895498935384    6.81760402125856
C         3.18120674975536    4.43644439843860    6.95515473192656
H         2.85330780733624    5.10505146969294    6.17285471421690
C         2.41337417087358    4.25110989898355    8.08851909536652
H         1.47143018379105    4.76967697562458    8.18606727831041
C         2.84182478092139    3.39913752601767    9.09255453963634
H         2.23138280615009    3.24490104777929    9.96914064452008
C         4.05452229745207    2.74407754900263    8.96605617341323
H         4.39502548779666    2.07856615681679    9.74586156717838
C         4.83385102551940    2.93125677216686    7.83993278847384
H         5.77013026972132    2.40212912951606    7.72620963583963
C         4.50672510127631    2.87337702761181    1.38217832509093
C         4.51446588495862    3.68858375218138    0.24980784311713
H         5.11137595278899    4.58863907558578    0.24053273773162
C         3.71676244693152    3.38228165766288   -0.83587027308597
H         3.72166403916027    4.03143308981602   -1.69905138925819
C         2.90744462889067    2.25972721421375   -0.81719447418232
H         2.28235087758412    2.02615717351664   -1.66577746574010
C         2.90001186256128    1.44194477351519    0.30111744227134
H         2.27329524066087    0.56238281206436    0.32345384674552
C         3.68923193977755    1.74460366459612    1.39290504907511
H         3.68966579676905    1.10041016602986    2.26060025432366

