79
CSD_code = RUJCAA | q = 1 | S = 0 | Stoichiometry = C38H34AgN6(1+) | MND = 2
Ag       12.04770873018184    5.70756993334298   14.19560498251369
C         9.44541873578611    6.92592442227511   13.10315410399073
N        10.71422670102980    7.20055786350373   13.19978587186812
C        11.18025610598327    8.51755608373823   13.12053143101466
C        10.62115544516327    9.44866337098227   12.24403956192556
C        11.14842584640956   10.72169428449118   12.15689996410142
C        12.23881851471033   11.08685563924077   12.92871058727384
C        12.82306985364574   10.15441506902284   13.76901928356064
C        12.30412737618920    8.87812419721278   13.85512676555155
N         9.02544721548192    5.69164839419637   12.70147583752004
C         9.77069987115991    4.65659731302406   12.12841990930641
C        11.01536092593823    4.84936266478033   11.52026965335881
C        11.66930951457804    3.76927569670642   10.94128472616142
C        11.10365277901777    2.50674308919969   10.95431691217938
C         9.85730613187111    2.32173633632196   11.53144610512246
C         9.19669122070691    3.38405730970073   12.11643005970045
N         8.42944686744729    7.78362410916350   13.40671563222502
C         8.52743337564830    8.92828307673713   14.22100898793341
C         9.37590066811705    8.95178106651238   15.32204156769870
C         9.45096284232408   10.08905458067469   16.10336902848871
C         8.67680789493324   11.19750928266871   15.80577330845515
C         7.80905212617300   11.16119904895237   14.72744324639158
C         7.73055378585727   10.03067890612584   13.93610671501122
H         9.78775823024624    9.16718862929652   11.61701657209861
H        10.70520128177867   11.43294407770596   11.47689359322884
H        12.64062268679382   12.08540135548764   12.86134460342998
H        13.68839184192231   10.41866397001519   14.35709052560585
H        12.76091412071841    8.13337935382233   14.50412222600360
H        11.41753288546099    5.84438921786717   11.39606700944037
H        12.61755270318586    3.93185826084979   10.45088400196503
H        11.61244706905209    1.67482690865279   10.49425420436823
H         9.39332269555477    1.34772775431121   11.51673968730233
H         8.22279843027101    3.23487917405912   12.56091325912439
H         9.96934376927134    8.08192288418710   15.56915722923341
H        10.11377112786658   10.10333712067841   16.95410333264003
H         8.74159631740548   12.08332458119743   16.41755448839377
H         7.19206915845503   12.01601045310954   14.49839296189346
H         7.05546420941424   10.00131889979293   13.09328011674305
H         8.06623027371928    5.44900347468247   12.91063746313967
H         7.52424617482585    7.61676450662014   12.99036172368342
N        13.38114150465766    4.21455346999374   15.19145023687040
C        14.64995162336543    4.48917280256986   15.28809863194326
N        15.06992398224235    5.72344179633212   15.68979596742108
C        14.32465860880150    6.75848002469623   16.26285980739391
C        13.07999329580257    6.56569224146451   16.87099552422796
C        12.42602749317457    7.64576269687490   17.44999074943591
C        12.99167228570143    8.90830092961242   17.43698591235838
C        14.23802329641975    9.09332934299352   16.85987303226979
C        14.89865466686103    8.03102522428595   16.27487645103497
H        15.87255004772085    8.18022069927840   15.83040529247666
H        14.70199584277444   10.06734278449998   16.87459964284271
H        12.48286563685444    9.74020361073570   17.89705889183831
H        11.47778258360815    7.48316154148804   17.94038153084447
H        12.67783027567766    5.57066033412408   16.99518066344061
H        16.02914434540936    5.96608845639212   15.48065278188796
N        15.66592093358357    3.63146855611752   14.98454084935160
C        15.56793596827734    2.48680477472300   14.17025425547739
C        14.71946585351443    2.46329394383735   13.06922406969157
C        14.64441183144230    1.32601576188242   12.28790262901626
C        15.41857677751773    0.21756873280304   12.58550095246553
C        16.28633390131520    0.25389123440155   13.66382947808005
C        16.36482401424151    1.38441539771888   14.45516036101915
H        17.03991545539854    1.41378414629854   15.29798533095929
H        16.90332582480828   -0.60091349650489   13.89288168095513
H        15.35379435339677   -0.66824952053391   11.97372347396471
H        13.98160001975963    1.31172287235313   11.43717096947598
H        14.12601247848776    3.33314363016109   12.82210510719739
H        16.57111328503113    3.79830990266736   15.40092021999075
C        12.91509326632069    2.89756416027082   15.27071861158519
C        13.47420242866404    1.96644920774670   16.14719798457455
C        12.94691753251367    0.69342539519253   16.23435128161460
C        11.85649607052523    0.32828061730456   15.46257286554784
C        11.27223028099441    1.26073245148223   14.62228548487830
C        11.79119203925853    2.53701448739038   14.53615952815652
H        11.33439476538340    3.28176688969319   13.88718058780855
H        10.40688353217676    0.99649842438727   14.03424427210435
H        11.45467942663218   -0.67025934920163   15.52994938618660
H        13.39015137675528   -0.01782969082157   16.91434620718564
H        14.30761759063520    2.24791315437994   16.77420205677770

