65
CSD_code = RUJHOT | q = 0 | S = 0 | Stoichiometry = C30H29O4PRu | MND = 9
Ru        0.70513966520494    1.70560996170927    4.11330075492415
C         2.02234514598986    1.42828288427703    5.97735028298612
C         0.90209229197874    0.55390964930827    6.07864893174920
H         0.29102030343085    0.57527189430698    6.97317076769013
C         0.60534179094171   -0.35450115968099    5.06494360865425
H        -0.23076827755501   -1.03709722434703    5.17318852627216
C         1.41854211148341   -0.43739494437169    3.89610778252296
C         2.55622848968259    0.38359834277101    3.81141913274364
H         3.24382108167389    0.27217429066470    2.97850355023370
C         2.84814790072292    1.31824805477668    4.83992454928616
H         3.76195468357112    1.90316015150341    4.78052146106011
C         2.40821657413010    2.32601926643974    7.12962343906610
H         3.14115333054852    3.05468665713894    6.76233224390790
C         3.08657679588479    1.48079636582017    8.21467563866620
H         3.38565871308316    2.11527975629672    9.04517409568532
H         3.97158232972481    0.98485544267989    7.82017496377953
H         2.40478739905213    0.72085291883244    8.59045454260846
C         1.20511663081276    3.08465837903232    7.69638460310148
H         1.54374925206542    3.92067808533968    8.30345168616675
H         0.59736123752192    2.43916823599040    8.32580383511949
H         0.57609457831243    3.46641875937083    6.89285617956357
C         1.09261233291098   -1.44809538106164    2.83995988886968
H         1.12351260522859   -2.45440767674925    3.25903579360804
H         1.79328953034098   -1.38752205485567    2.01021321376177
H         0.08458872896456   -1.27263344180078    2.46297418242875
C        -1.90147207179466    2.89782070875784    4.46795562971970
C        -2.04205952461737    1.93363183088763    3.24087941085806
C        -0.47305323354508    4.01347801069328    1.77122812776764
C        -1.17889983372133    4.93085018605359    2.55081436699677
H        -0.76711066630475    5.25405544856604    3.49876197915973
C        -2.40314030008704    5.40515906151470    2.12205060629186
H        -2.95713522052521    6.09262436065906    2.74225346576200
C        -2.92727141574486    4.97257765398871    0.91497864770321
H        -3.89462135453527    5.32465880640937    0.59057481665535
C        -2.21719334787270    4.08195238794916    0.12836880162357
H        -2.62666271261113    3.74600343311448   -0.81282023386941
C        -0.99324161733866    3.59574299271999    0.55173267859118
H        -0.45126302771495    2.88993422467916   -0.06089051559149
C         1.91170317692404    4.85190078362912    2.97303480192751
C         2.12070573574144    5.85907076541021    2.03451534604898
H         1.76402589420745    5.72890744497245    1.02171671537705
C         2.76860784551171    7.02100592413079    2.41011514538396
H         2.93484163190928    7.80327529153975    1.68413560973284
C         3.19553611089596    7.18907249071936    3.71911963470465
H         3.69699004632897    8.10101918776133    4.00745194371237
C         2.96679591846151    6.19800349380385    4.65926527416690
H         3.28245678704999    6.34002015536240    5.68239857262807
C         2.32534996168302    5.02981578319930    4.28608253202549
H         2.10988374939761    4.24981741761576    5.00483604971381
C         1.96647697284248    2.58011153433968    1.15962544404405
C         1.43150173369778    1.39604134559411    0.64981155291182
H         0.50470938099638    1.02130344806952    1.06801981698883
C         2.08478370898036    0.71988258419250   -0.36278391381127
H         1.66315636529580   -0.18929252920946   -0.76638252897245
C         3.28515661071021    1.20798796504130   -0.85841318733404
H         3.79822751859781    0.67925428632256   -1.64810102065982
C         3.83171310548288    2.36725614495960   -0.33415657371104
H         4.77346711280392    2.73807326163168   -0.71163404740740
C         3.17809361924195    3.05576850479493    0.67483881790579
H         3.61135120986491    3.95624499857954    1.08574435666620
O        -0.70049371253705    2.99032545740152    4.93123082584814
O        -0.95450758416023    1.30774219132360    2.93734187413124
O        -3.08934436013098    1.80390857437142    2.64288267013492
O        -2.85403288632310    3.49643766561692    4.92173068043119
P         1.03290344723555    3.32943950945000    2.52289217129267

