45
CSD_code = RUJJEN | q = 0 | S = 0 | Stoichiometry = C12H22CdN4O4S2 | MND = 6
Cd        9.72828773760908    6.25690553481649    2.87687910300311
O        11.39040278541776    7.65208396169961    3.11910954490837
O        10.66926247929626    6.52845337610908    4.85752381388313
C        11.44616395964042    7.39290210636431    4.34006555096736
C        12.41137864584084    8.02871407208402    5.25968755487734
H        12.28271459307747    7.69847509914948    6.28261336749548
C        13.36478915816794    8.91748421043687    4.96742334462694
C        13.63764514054273    9.45192544814716    3.60123380660960
H        13.00027885126863    8.97386413148411    2.86513394040603
H        14.68339546454698    9.29085290648794    3.34024678583736
H        13.45488532416905   10.52634594808915    3.58508165860888
C        14.25947984614472    9.45571299835703    6.04300045341672
H        14.00478357767931    9.04866682742221    7.01780021098221
H        14.17961671547795   10.54143246573358    6.08385625700605
H        15.29816864916581    9.21233758243840    5.82071707740828
S         8.06184655349698    4.14411490615717    3.56099041584812
C         7.92894558013279    3.30902544174541    2.11399372942310
N         8.02667426829737    3.89112794533638    0.92372263443457
H         8.06828264315821    3.33349172873366    0.08587651007499
H         8.31190815424895    4.87721643626851    0.85643790932456
N         7.68369199537205    1.98108902027541    2.16550794522687
H         7.46486317138686    1.59102112556231    3.06561504554495
H         7.40453271455037    1.47419288559310    1.34167517750335
O         8.06734067975402    7.65345832815659    2.63483053631868
O         8.78646015385058    6.52841859227895    0.89648833959968
C         8.01051564887282    7.39366993585652    1.41405501475147
C         7.04529464480898    8.02999773404369    0.49477472770844
H         7.17402951805034    7.70044720855653   -0.52836914778782
C         6.09166830875817    8.91833833268987    0.78762680180026
C         5.81823364510737    9.45135128335853    2.15426464053938
H         6.45613231233679    8.97338529017735    2.88995877416769
H         4.77266320022851    9.28882079072916    2.41511095988945
H         5.99972880603718   10.52596295320815    2.17135059349712
C         5.19701530769483    9.45731170023851   -0.28761493498261
H         5.45165834767350    9.05080306093055   -1.26265107113948
H         5.27711000999108   10.54304013889907   -0.32782886021274
H         4.15827124667780    9.21401341685498   -0.06548064453479
S        11.39334997759459    4.14196597173012    2.19443035362823
C        11.52776355717887    3.30843116132694    3.64218306369206
N        11.42908839075159    3.89146173055279    4.83189549681339
H        11.38883547133316    3.33466473141115    5.67034483816473
H        11.14315876016418    4.87742424495799    4.89835502827797
N        11.77471482997229    1.98075753864183    3.59183932943074
H        11.99374354062784    1.59021106422633    2.69199662963386
H        12.05472563387504    1.47492863270437    4.41604769328119

