49
CSD_code = RUJKOW | q = 0 | S = 0 | Stoichiometry = C19H23CrNO5 | MND = 6
Cr        0.79321591770722    1.38326729331846    2.38933893394590
C         1.92067776472375    0.32724156193350    1.33933000426376
O         2.42462912520987   -0.44787901005296    0.65197766405012
C         1.55331959072659    0.73949963038008    3.96818923646982
O         2.13020443011941    0.47463025613383    4.92922474311199
C        -0.62709838350468    2.15892989444887    3.32801756272352
O        -1.61791216147299    2.46200139981669    3.83424072567683
C         0.33117956385947    2.31491031492271    0.83799100646118
O         0.13572482030199    2.93725050138579   -0.11085993367402
C        -0.42843316717853    0.00477146285751    2.10197481974901
O        -1.18490611265619   -0.84596006855400    1.92399615667100
C         2.14744530933174    2.81062379401354    2.82943190064888
C         2.01339004692651    4.22724735171013    3.46030110411047
C         1.74313091801298    4.07678065116285    4.96148279732853
C         1.27796033702449    5.34702532162322    5.66803483376616
C         0.08553638430755    5.95042977704950    4.93580666016814
C         0.48505989563425    6.32893595619706    3.51503073190344
C         0.98289531917568    5.10480409059112    2.74626187105049
C         3.48518438708562    4.33585648279750    3.05722679072444
C         3.53285853981649    2.98470781991998    2.70249061493838
C         4.60980614314871    2.03273785776104    2.30741554460150
N         4.32316497723993    5.35721189676676    2.90905678281058
C         5.56252094855516    5.17343854056634    2.17386000866170
C         5.33851574583223    5.15024296278188    0.66243677992291
C         4.04367570102084    6.67872668815580    3.42381478368989
C         3.77925093315397    7.71848486818722    2.33742511848684
H         2.63622388377528    3.67704660622179    5.44824031849886
H         0.95141070554596    3.32743914589263    5.06631953075569
H         2.08698050701862    6.07979409374027    5.72744533662383
H         0.99748560692405    5.09444842602208    6.69256665241919
H        -0.27710840345635    6.83176308841383    5.46862030626701
H        -0.72302135973703    5.21804621546737    4.90274368361180
H         1.24476961985064    7.11123830466462    3.54911593006054
H        -0.37606690372104    6.74257780884640    2.98575033422728
H         0.11768341310307    4.46227172705896    2.55348399809615
H         1.38078725431540    5.40649936642813    1.77367241421383
H         4.17446516253839    1.04131509180747    2.19656957144361
H         5.08307950824331    2.30575143346215    1.36437729867333
H         5.37977591749699    1.97959169599453    3.07751271595483
H         6.02085515058062    4.23339423903104    2.48599578569263
H         6.23866285840837    5.98856700028355    2.44014648352643
H         6.26887077482009    4.90302900183169    0.15792713657139
H         4.59149981361624    4.40395069581334    0.40421613202032
H         4.99515743974560    6.11437631997712    0.29853972837635
H         4.90057996123280    6.99726710690306    4.03012722367729
H         3.17728773568505    6.59801473665887    4.07693800032607
H         3.46988339423654    8.65277937236581    2.79954847348405
H         4.67339092795701    7.91292760338011    1.75095496089780
H         2.98765005771326    7.38259362385891    1.67229074231640

