56
CSD_code = RUJKUC | q = 0 | S = 0 | Stoichiometry = C24H25CrNO5 | MND = 6
Cr        3.11069992398975   12.73650310559980    0.34528679981223
C         3.31829107132957   13.96574239207300   -1.04576082166948
O         3.56609827130669   14.68889017518323   -1.90665838433493
C         2.73064822153593   14.10915510083349    1.55906813846165
O         2.27959240588990   14.92482721230821    2.23816999000558
C         3.36134596515129   11.48560743959057    1.70898981938116
O         3.69460191252616   10.73114816505842    2.51323171218589
C         3.03928069646034   11.38054145651248   -0.93767823496250
O         2.75010882439809   10.59367644849406   -1.72863915067672
C         1.25323775936612   12.63901038126670    0.21250300937737
O         0.10571170798594   12.58176676145148    0.12640457431249
C         5.11101965081462   12.77629948499333    0.58461429290981
C         6.05007502302940   13.74094685520379    1.37005811912189
C         7.15400893344638   12.88176235448184    0.74896376047099
C         6.21871414122329   12.01658074205920    0.17777694840665
C         6.30604938827937   10.75615112236880   -0.61416548048390
N         8.47574876597413   12.97559168897723    0.70195624861459
C         9.25568168515676   12.03932884419013   -0.07885681559869
C         9.21625188162541   14.05108490266335    1.34418876906982
C         9.81831494394640   14.98086950630830    0.29094486464388
C        10.21332879265914   13.46078596371955    2.32410390656206
C         9.74566501787934   12.52685723271294    3.24506295887835
C        10.59743604112092   11.95989250193707    4.17337735309980
C        11.93427406946506   12.32156861939709    4.19875016058007
C        12.40712915870676   13.25086200093030    3.29040094396965
C        11.55389843738226   13.81724394156457    2.35701033335933
C         5.89812367928754   15.19160563825590    0.90161181087061
C         6.43016806364686   16.27540841124846    1.84081464348091
C         5.96911388924581   16.03250772105224    3.27292288005135
C         6.43702047539701   14.66350823818823    3.75215509560039
C         5.83474434241128   13.56741204505814    2.87693265978920
H         5.30514498340417   10.47548225493622   -0.93406337663779
H         6.70631035177464    9.93984311572082   -0.01187280808618
H         6.92984735158176   10.87500765120812   -1.49927975625532
H         8.82435935466596   11.04446155876965   -0.01231087378522
H        10.27002957884007   12.00791304801061    0.31623931987493
H         9.29034368134123   12.33967006829933   -1.12917136571099
H         8.48451548849862   14.61780295579647    1.92372887473871
H         9.03476856273959   15.31099962916301   -0.38812991967933
H        10.59068292450685   14.48155251055362   -0.28850342727694
H        10.24632707645889   15.85892674358963    0.76717760245070
H         8.70356223356916   12.24188527007447    3.22968570634936
H        10.21679633559401   11.23786420095477    4.88005023673603
H        12.60210456612145   11.88236559266692    4.92418894657467
H        13.44760687646066   13.53962498415365    3.30381061154685
H        11.94775819164715   14.54039985635173    1.66067780918467
H         6.34962685766492   15.29848649157635   -0.08835422852126
H         4.82269481809479   15.35975812117603    0.78346233471111
H         7.52074377162542   16.32742308702924    1.81289535900584
H         6.05978183390427   17.24234201858444    1.49344130408714
H         6.36091010796967   16.81392341790445    3.92712567363701
H         4.87911371606154   16.07219865216319    3.31310802546187
H         7.52916843008979   14.61823233083521    3.74593925708687
H         6.11629536181838   14.50233249523290    4.78345971103784
H         4.75229789111072   13.56503846503822    3.04259543276268
H         6.20852651368559   12.58672902680875    3.18305864493225

