28
CSD_code = RUJLIT | q = 0 | S = 0 | Stoichiometry = C12H9NO5W | MND = 6
W         5.84480209186113    1.72587418895663    3.81046597998566
C         7.82459842144556    1.98297158374355    3.82715934791807
O         8.95868417532107    2.12573819168311    3.82819524017041
C         6.16783726460297   -0.24455018300548    3.81818930683939
O         6.43100674272168   -1.35855291086759    3.85076005360944
C         5.56182436784118    3.70558307268414    3.85710642822676
O         5.42017935288248    4.83660515469271    3.91587638398540
C         5.94214103437367    1.79125604475373    1.81808411209826
O         6.10215253554065    1.85523668640172    0.68611084133280
C         5.81600365640284    1.70625386148966    5.81075218823866
O         5.84136791636351    1.73065690807169    6.95124718161942
C         3.68105667546494    1.50208288613410    3.83649225689145
C         3.04331496184788    2.24563306532447    4.85270111736747
C         2.52758198304595    2.89096654774530    5.73187234360376
H         2.14859638049623    3.47337783035404    6.51937295048171
N         2.88017016919104    0.81244457765763    3.07098314005149
C         1.42564679064450    0.76374732390357    3.20165843046238
H         1.01998730192629    1.77437474952084    3.28541299055604
H         1.16602283844175    0.21749794397425    4.11503669451026
C         0.94669155894232    0.02222799358642    1.95780723716616
H         0.01379888120646   -0.51015010329286    2.12784678244618
H         0.80370298974449    0.72086921862543    1.13267417485674
C         2.11869518925099   -0.90977713682223    1.65909503364388
H         2.12533569975664   -1.26761430831060    0.63251991891475
H         2.09619720094457   -1.77006531150828    2.32914747151575
C         3.32323729406516   -0.02787642564736    1.97330544530635
H         4.21109855567915   -0.59561301935417    2.25877382608411
H         3.57616796999370    0.60200156951049    1.11305312211154

