40
CSD_code = RUJLOZ | q = 0 | S = 0 | Stoichiometry = C21H12CrO6 | MND = 6
Cr        6.21123599085476    3.11753570767486    3.08711752330214
C         5.67612713188440    1.35133582566902    3.41067490502592
O         5.40256652756422    0.25261764364081    3.59557523042894
C         5.90153400780237    2.83301346741927    1.26239141680648
O         5.94060717921268    2.57030497481876    0.14222316278492
C         7.92059937856546    2.50669673553600    2.65439800582232
O         8.97545134723120    2.14530066355154    2.37636057605116
C         6.85537016677786    3.26561951299409    4.84022874503839
O         7.41591167524234    3.30627349306945    5.84042403149857
C         6.69268732931727    4.90558613289689    2.85648654773026
O         6.95128820045047    6.02446192665079    2.79883928003449
C         4.43599786283562    3.95418618543444    3.61319830003397
O         3.56126863294585    4.65630173313025    2.91062251908928
C         3.64719762869325    4.75105245228686    1.50456413569663
H         2.79497488895161    5.35371013988558    1.19084536456619
H         3.58588060624925    3.76168039886608    1.04347365005639
H         4.57613155405988    5.23969397264542    1.19780714065117
C         4.09237686881279    4.10506700789226    5.03295594868172
C         4.17061356821915    3.02608862102407    5.92224916229557
H         4.43271335753885    2.04676863188441    5.54697032661571
C         3.87787422793589    3.18948787305070    7.25643047336608
H         3.92797508777035    2.34979864647671    7.93370687291528
C         3.51818046722425    4.44761704956713    7.75421467454490
C         3.42910567744554    5.52779415179853    6.87184781379894
H         3.14759046020238    6.49934698900164    7.25073847782339
C         3.69270452332844    5.35145243747611    5.53183795274363
H         3.62868965723102    6.19102012204921    4.85510099686438
C         3.24891531080890    4.61914171453262    9.12516547149212
C         3.02497928985265    4.76659780869777   10.30377341038608
C         2.76758767642364    4.93225714185048   11.68033639173052
C         2.81663562646024    3.83289600824493   12.54060322950982
H         3.05077675930437    2.85722658954747   12.14037450286301
C         2.56747740556957    3.99999138900726   13.88850890031493
H         2.60650223161762    3.14770308463406   14.55112499990807
C         2.26863637110714    5.25614359237190   14.39313733991902
H         2.07542850051518    5.38225614619583   15.44811538452761
C         2.21834570643853    6.35048114386060   13.54356565731351
H         1.98587307789060    7.32906010625100   13.93772384275900
C         2.46513713251610    6.19546305000418   12.19371723162954
H         2.42835090722468    7.04396972850379   11.52607040331667

