37
CSD_code = RUJNUH | q = 0 | S = 0 | Stoichiometry = C14H14Cl2N2O4Pd | MND = 4
Pd        2.91293775043985   -0.00529661826274   10.55071019095805
Cl        4.60370522919839    1.53154053630613   10.58709614574135
N         2.71007348430065    0.26043138683580    8.65543669098234
C         3.22853890899014   -0.61548573733071    7.79344498239063
H         3.75615543333800   -1.46496139003846    8.22707672177282
C         3.10412407565645   -0.46776766825945    6.42511124801829
H         3.53347454528280   -1.19018564902238    5.75053561205101
C         2.40917533421077    0.63445667423911    5.93160401528228
C         1.87009261238260    1.54299457574766    6.84131510296380
H         1.32893196715232    2.40193423226615    6.47661081298032
C         2.04442993676678    1.32006171186065    8.19279694391165
H         1.64739937815259    2.00666733227793    8.94028864806666
C         2.21935995151293    0.87945611051251    4.47360459872373
O         1.61089428593315    1.81834040500493    4.02703210413545
O         2.80024418293351   -0.05976871535708    3.72300273190084
C         2.66731642943746    0.09967352495123    2.31681997117237
H         1.61236726247412    0.13897946809639    2.03854584409271
H         3.15178989914243   -0.76240997274863    1.86623554771591
H         3.14999390996488    1.02435269009567    1.99426780460393
Cl        1.22236035395748   -1.54169022726261   10.51410385109097
N         3.11538612403755   -0.26963001301582   12.44620383868167
C         2.59776766314002    0.60891992711957   13.30606717026430
H         2.07001345094152    1.45732865327520   12.87043782803269
C         2.72334807245036    0.46527838674200   14.67469819892214
H         2.29478735671780    1.18979637918377   15.34751396997052
C         3.41859282606915   -0.63557369314352   15.17087912961842
C         3.95647965979253   -1.54704163834505   14.26341710279387
H         4.49772236192636   -2.40506775540516   14.63015317016515
C         3.78101401205647   -1.32811171599196   12.91140015064378
H         4.17720028923299   -2.01694136358462   12.16556570941167
C         3.61000727142998   -0.87578165655437   16.62946593934289
O         4.21822457999312   -1.81364586015655   17.07852665854051
O         3.03126622115265    0.06682172601116   17.37749364514248
C         3.16622980148531   -0.08742957455728   18.78405409240489
H         4.22156203630645   -0.12714501608097   19.06079739189455
H         2.68368299764129    0.77707249167948   19.23206659303110
H         2.68275034439980   -1.01017194708943   19.11091984258603

