57
CSD_code = RUJNEP | q = 0 | S = 0 | Stoichiometry = C7H30B18CoP | MND = 10
Co        8.17741533775169    4.22968142676427   11.74373011392912
P         6.54831535076579    2.62028719229359   14.34397563548113
C         5.57085406526552    2.99559329043876   15.85920727349801
H         6.20562294836129    3.46847977314607   16.60157964727654
H         5.15416229125538    2.08186747324332   16.27598079901932
H         4.75472608636924    3.67245052338079   15.62598114337351
C         7.62446309084795    1.29070287978148   15.00405820621061
H         8.35056249151672    1.72758356390074   15.68232326860771
H         8.16137004820117    0.79529828878270   14.20316797848021
H         7.03420800701810    0.55231558422437   15.54031140195156
C         5.27079925351454    1.70132223598121   13.39608238907707
H         4.44337547206521    2.36316038825699   13.15938385397992
H         4.89439280145010    0.87995440805763   14.00117202153844
H         5.67400941405587    1.31289714634224   12.46850523437557
C         7.01806165346658    5.44314935376593   12.94481262688499
H         6.01163203164889    5.51323735494289   12.54663367452745
B         8.28539982504774    6.22670102059092   12.16506806569066
H         8.15273887885448    6.81768890524415   11.15756493962318
B         7.56194905626895    6.93309979202409   13.61318556507224
H         6.84992487336151    7.86695556148683   13.52634291565227
B         7.14592393342165    5.59774505165504   14.65053400622630
H         6.14958961284602    5.62498484334759   15.28018668880355
B         7.57497648524217    4.11503386689294   13.72787694420786
C         9.67908244153954    5.50319475020915   12.63027686790018
H        10.56088108287808    5.54013652030587   12.00184207502742
B         9.31304672885867    6.95797045007697   13.43798265785035
H         9.95803902281213    7.91287832601490   13.20174921223453
B         8.61530190927544    6.48883718920240   14.98965320548100
H         8.72448583595664    7.14819952332346   15.95927566116473
B         8.62170841998151    4.70038388200027   15.02781944056287
H         8.75225279193016    4.08431713450494   16.03134397584881
B         9.29965880249292    4.12037562276263   13.45485585820916
H        10.02304934401657    3.18741320936522   13.45004171182279
B         9.96464253440841    5.57436709034648   14.29834836161026
H        11.07680292936394    5.55348693805902   14.68374177032874
C         9.30540743491041    2.88991063207351   10.62042979511986
H        10.28061129698095    2.76353703367942   11.07688559433909
B         8.93377562203872    4.31612434252748    9.83931692396429
H         9.68085925148573    5.22253149820444    9.77019511573532
B         9.33692331325592    2.84333451489276    8.91933710943102
H        10.38425156168988    2.74963034554373    8.38781345110184
B         8.65780860212040    1.51238735193338    9.83175356378004
H         9.22110837267981    0.48281033878230    9.94013583945614
B         7.96057544530322    2.25358504674925   11.29005012632248
H         8.02290657703733    1.58932845690425   12.26428652452094
C         7.30085638623154    4.47318885636627    9.78266879793643
H         6.84524266877968    5.45211339894018    9.68655332933506
B         8.01520280743324    3.86603573632395    8.36558192877739
H         8.04704120055112    4.55740240975150    7.41278373019350
B         7.78598920154753    2.10508074340697    8.42949672131473
H         7.66481344198859    1.45011598518175    7.45701490578867
B         6.90789095071589    1.77088601371373    9.96481798196822
H         6.14289374930697    0.87528850057266   10.08509856596480
B         6.63924549201149    3.33802887385493   10.76444066345547
H         5.61981985077643    3.56111989747065   11.32188766269845
B         6.51967352837349    3.19622491012950    8.98117745807620
H         5.47917839267657    3.40808455228200    8.46967901918000

