140
CSD_code = RUJPUH | q = 0 | S = 0 | Stoichiometry = C58H77FNiP2Si | MND = 7
Ni        8.08806446969222   10.43421745222389    1.47179512320961
P         6.93631702452656   12.11947955963871    0.72872178844350
P         7.71436022228526   10.54016325847772    3.62568000577083
H         6.93716993959911   11.68518579577203    3.85962305192126
Si        9.45481397083080   11.31406957274804    4.80862543389187
F        10.73878809394317   10.49211603572301    4.19530342032784
C         7.09715229728212   13.90053778133084    1.12768330153628
C         6.71190243029412   14.90497855844372    0.24260442558161
H         6.34486454178444   14.65463252163331   -0.74259330243787
C         6.80836624333000   16.23412381883485    0.61260654957076
H         6.50766296225513   17.00433993643128   -0.08314910653748
C         7.28786673142304   16.57875006849153    1.86563475381543
H         7.36246523323313   17.61871950146456    2.14802019300642
C         7.67274291473952   15.58703282586808    2.75092268630625
H         8.05986914067048   15.84346718902470    3.72428470502878
C         7.57612098874050   14.25762041080698    2.38151331725445
H         7.89404851674579   13.48068271109487    3.06223764884710
C         5.17458173309169   11.86148664491815    1.16347087879147
C         4.81281968059623   10.60948271482115    1.64825073064723
H         5.58747105664540    9.86040890495792    1.78782115251160
C         3.49465587871590   10.32888076848928    1.95679230335607
H         3.22370076780192    9.35313146715484    2.33261633327444
C         2.52486709142758   11.30267473780309    1.78594661648487
H         1.49352379973818   11.08957418918233    2.02632717416215
C         2.87984773069629   12.55519313354839    1.31073218344802
H         2.12465007081412   13.31719066198398    1.18205810805728
C         4.19768481416812   12.83771177915929    0.99950175578141
H         4.46449070358519   13.81821333019008    0.63296933179467
C         6.83988393261460   12.23976502579085   -1.09012059526862
C         5.75969913571942   11.76523214263876   -1.82365934797688
H         4.91509487412473   11.32283194922310   -1.31439944948448
C         5.76197687699141   11.86594353592406   -3.20516628914151
H         4.91778659113431   11.49656456446749   -3.76972182213133
C         6.83921253537281   12.43540244895377   -3.86263108672008
H         6.83573604477210   12.51326827411404   -4.93988461955436
C         7.92429869627767   12.90159588787543   -3.13597502210210
H         8.76840484379306   13.34160285274694   -3.64703481590328
C         7.92792149555682   12.79709673254686   -1.75851203669134
H         8.77166656736856   13.15492655640722   -1.18308842717457
C         9.80999428310657   13.19419929725710    4.65561094781325
C        10.64778329383456   13.70414248998375    3.65378559044471
C        11.10152894491140   15.01285440864508    3.74101046646815
H        11.78062741483318   15.39025169994385    2.99082903585924
C        10.71418763124901   15.85644703245655    4.76758983700880
C         9.78011756449777   15.38304600134267    5.67555199918665
H         9.40570258274343   16.04579664627234    6.44161191424765
C         9.31602182286203   14.07716643434907    5.62714363809689
C        11.07303269757815   12.88154321288047    2.45950618831633
H        10.44242149603957   11.98466850166181    2.40085975368927
C        12.54011697076184   12.46831569815429    2.59739082283078
H        12.88212728747815   11.96970222472141    1.69368587402872
H        12.67210947639358   11.79078732071198    3.43535967435963
H        13.16404009907009   13.34507574981907    2.76227059027970
C        10.86605850120173   13.64363713602200    1.14665326228481
H        10.97645709667460   12.95709801452243    0.30945960616255
H        11.59610893196608   14.44025813024222    1.02307623545170
H         9.86928767903439   14.07845390860161    1.11054793752285
C        11.25197341507535   17.26321823788882    4.85242186973638
H        12.02281522952339   17.38010897720204    4.08206473244229
C        10.14271261961207   18.27941715272580    4.56968467860029
H        10.54160539215631   19.29150378013018    4.59193572151385
H         9.35351125386102   18.20572281196746    5.31450658736603
H         9.70871504241819   18.09838007592272    3.58841695638905
C        11.89752814396880   17.52467664841255    6.21418470026410
H        12.35602620820244   18.51128346931235    6.23131576157511
H        12.66545790036969   16.78128139068012    6.41698477293999
H        11.15869584938770   17.47836283799676    7.01033943533692
C         8.22006449454490   13.67442743239459    6.58701946597323
H         7.96130203902674   12.63052858870944    6.40236485853433
C         8.65302980942612   13.80170326309635    8.04765789086403
H         7.84071223214198   13.50140521135350    8.70655920168968
H         8.92555609994654   14.82585533873413    8.29110162711844
H         9.50527282616428   13.15719076431836    8.24622160891451
C         6.95696978037509   14.50128430827640    6.32363733471395
H         6.15414969007765   14.17327818249252    6.98080942997445
H         6.62799881679471   14.37754013214314    5.29408067870656
H         7.13212675471819   15.55914393290461    6.50484500527000
C         9.66279114547904   10.82563097791851    6.65351543806274
C        10.89281933519340   11.08986477131159    7.27548573526830
C        11.09231195677759   10.72408411699524    8.60060974702040
H        12.04642545073710   10.92498702764706    9.06639889771998
C        10.10748529800459   10.10820482075256    9.35062106549337
C         8.89140746398271    9.86655105382092    8.73615357781374
H         8.10500883492992    9.38822737966271    9.29856656136507
C         8.65458266501928   10.22149409527012    7.41651786733925
C        12.05537040511519   11.75262192617108    6.57094219031344
H        11.74926306838239   12.06283972136419    5.57490469670620
C        12.51437221483010   13.02188786522028    7.29193124273532
H        13.32699091933254   13.48413288698667    6.73499590649159
H        12.86827326178767   12.81198940290733    8.29801992329832
H        11.69583467459024   13.73544827305247    7.35161661012423
C        13.20891173174123   10.75906153979167    6.41423442558607
H        14.03294773315929   11.22209104957448    5.87491778451719
H        12.87272500184187    9.88953633275616    5.85481378752561
H        13.57603773169568   10.42522137763296    7.38179687592705
C        10.35033416135442    9.73381852584487   10.79153800994743
H        11.38543548206858    9.99288248261493   11.04247597501336
C        10.17097160096683    8.23015559599641   11.00734337889912
H         9.14374940677059    7.93117539977921   10.81433778432143
H        10.41764842809364    7.96386338066480   12.03311554683433
H        10.82165941992322    7.67218022538530   10.33753030263187
C         9.42339405535785   10.52983440302930   11.71311482518877
H         9.63700149648799   10.30092849481882   12.75516841795892
H         8.38241376845605   10.28712620110231   11.51420202875996
H         9.56108716870468   11.59767514670918   11.55640276619622
C         7.28698006059935    9.90769034220782    6.85731556660505
H         7.17856850860282   10.39484382507205    5.88268909801772
C         7.15234152847891    8.40206605517938    6.62765310662301
H         6.18290305747909    8.17401122349538    6.19072679068919
H         7.25220522561840    7.85510203581185    7.56260771663252
H         7.92877827638211    8.06116889215103    5.94671498423970
C         6.15611894608644   10.42603876999822    7.74835786974016
H         6.31746172043986   11.47166388331931    7.99931608243525
H         6.07988996458743    9.85892006123759    8.67272743121892
H         5.20745056947122   10.33978472379555    7.22300454079309
C         7.78908713449769    8.24801492402575    1.16805571820697
C         9.07455712100112    8.63299380386587    1.73717934135675
C         9.81995143342003    9.31938842447221    0.71928150247048
C         8.97423658425104    9.46662344811338   -0.38748250694630
C         7.71080675962214    8.78597284814981   -0.10949435064112
C         6.84106540402123    7.30793181719821    1.84589580519236
H         6.68185411371730    7.60330431645235    2.88369870318943
H         7.25812203011751    6.29862032114014    1.84386730896619
H         5.88049156569298    7.27908926709508    1.33575978793638
C         9.64321633905376    7.95386768099794    2.93976441299985
H        10.65242808589383    8.29405762483802    3.14665724827730
H         9.66106600243495    6.87632317838803    2.76643585006505
H         9.02951132621934    8.14191690312901    3.82404658983665
C        11.29417766725499    9.58408242490300    0.74791647560003
H        11.82837760663294    8.70798110771378    0.37074397635079
H        11.63728545214793    9.78401250557819    1.75930941549316
H        11.55497747628246   10.43112789472295    0.11598946838992
C         9.40715116114976    9.91102617373371   -1.74731141551574
H         8.55985875360459   10.18415088151068   -2.37178257689432
H         9.93846095121135    9.09171153810336   -2.23891854582676
H        10.08550786072147   10.76136855875721   -1.69407966362078
C         6.66121171990658    8.50227964215007   -1.13720336321135
H         6.94278921476223    7.61823674685983   -1.71441617449440
H         6.54698866725978    9.33289493482001   -1.83116592077859
H         5.69556981657297    8.31046700106573   -0.67223438582526

