113
CSD_code = RUJPOB | q = 0 | S = 0 | Stoichiometry = C42H64FFeO2PSi2 | MND = 8
Fe       -0.02931033459268   -2.83458894765582   17.99598057412020
P        -2.62717391181119   -0.70999194962073   16.78948699420689
H        -1.76075888432322   -1.04823918102438   15.76134682110837
Si       -2.28475369840636   -2.74374354919912   17.80236599276065
Si       -4.44581880847912   -0.80008235303326   15.45844703893595
F        -5.21486234594776   -2.24672267521078   15.63981903516063
O         0.14065712729976   -3.78399515496978   15.27732494748690
O        -0.26991574369299   -5.62871851438956   18.68675333827912
C         0.02657645317560   -3.39087647788181   16.35016424542853
C        -0.21891022852067   -4.50302506834437   18.46425988798541
C         0.10582466507846   -0.75747357667598   18.91060198950104
H        -0.68211715180943   -0.04717293824954   19.08989635144191
C         0.60112660246234   -1.72120915814535   19.81846660563184
H         0.30210812620582   -1.83638996073770   20.84781790608883
C         1.73991804868450   -2.33531650142833   19.23231865610088
H         2.40804256277366   -3.02247887349267   19.72579925124528
C         1.91113244674157   -1.79225326631246   17.94534228446601
H         2.73703921488081   -1.98456927798095   17.28022526272147
C         0.88103420199221   -0.83433115780700   17.73588827603833
H         0.80845742512850   -0.16403873004124   16.89534274397677
C        -3.01972814986110   -4.23986687437573   16.82434549722696
H        -2.47887510233006   -4.39027596965833   15.89628245579287
H        -4.06623252690957   -4.09827436984250   16.58064415460353
H        -2.92986511148209   -5.15397144093421   17.40248301138854
C        -3.24581684121679   -2.71168225336543   19.50143668961938
C        -4.74038852933034   -2.86407867270819   19.22635996086228
H        -4.95892545881504   -3.83684998133948   18.79643026402026
H        -5.08578388827592   -2.09989781579955   18.53341373442479
H        -5.30910241729528   -2.76823623255655   20.15148988460089
C        -3.01633048191754   -1.40579186597812   20.25422338689773
H        -3.19340115038528   -0.55165635625268   19.60427875479020
H        -1.99936784591328   -1.35145852043358   20.62931159604701
H        -3.69236494252068   -1.33405742473434   21.10681521820252
C        -2.76981222128407   -3.87037935262107   20.37101319665220
H        -2.96240466170695   -4.82409998561751   19.88794023279259
H        -3.28614718732479   -3.86642239117320   21.33058559800313
H        -1.69917684525506   -3.79617477641657   20.55372840854145
C        -5.93004765290733    0.38453660273253   15.70715755513488
C        -6.87619832729342    0.49730882382089   14.67677280191067
C        -7.84990075672306    1.48517014209263   14.73456990915992
H        -8.57089669318161    1.56429106941363   13.93364890656415
C        -7.92124984516160    2.38488155377445   15.78323719006231
C        -7.03276055097930    2.21885809782252   16.83165896675092
H        -7.09651653074253    2.87704697563331   17.68434720953620
C        -6.06400624954431    1.22665220518004   16.81875668757437
C        -6.93570550641466   -0.47014992136153   13.51841646559592
H        -6.09201730057253   -1.15537115751679   13.58282354376458
C        -8.21238316308733   -1.31037318821050   13.61784267195330
H        -8.24385032613438   -2.04101146090568   12.81207387923167
H        -9.10028428215328   -0.68645472383655   13.54967127995853
H        -8.23536480891406   -1.84008256066484   14.56738178104960
C        -6.84578384262758    0.23257730401817   12.16351560832041
H        -5.92884386560875    0.81321640718132   12.10000820179001
H        -7.69138746889404    0.89618473207275   12.00071141333289
H        -6.83515835013572   -0.50727604815753   11.36578492808166
C        -8.95079491199823    3.48700388511230   15.78911027266956
H        -9.53103780146349    3.41745073390880   14.86186243111103
C        -9.91495617961160    3.32763926463356   16.96632300199260
H       -10.69150179927254    4.08851560259640   16.92397177466979
H        -9.38945300070121    3.42680404940223   17.91278485244565
H       -10.38691466066314    2.34791422831511   16.93813579044300
C        -8.27110981080999    4.85740350195803   15.82344991274225
H        -9.01450496912125    5.64953901839711   15.76372889643240
H        -7.58559042171513    4.96013236274113   14.98485126408526
H        -7.70736166368970    4.98545283313718   16.74419893775850
C        -5.21559289753698    1.06348923967738   18.05667146264808
H        -4.60762228542508    0.16141378075785   17.94148798356169
C        -4.26850889233694    2.24676836403870   18.25452579855181
H        -3.73925453814363    2.14903275008053   19.20019478246374
H        -4.81479087010259    3.18726128029964   18.26067906970435
H        -3.53283050265395    2.27652221781161   17.45397266072614
C        -6.09784749065633    0.85661202747482   19.29106426378728
H        -6.65111078337762    1.75866510592153   19.53951417731548
H        -5.48320426614969    0.59037049967552   20.14773225830824
H        -6.81062146392677    0.05419678305846   19.11446200157538
C        -3.72711795958193   -0.50177098335078   13.71243215339886
C        -3.46225428743682    0.81630680894527   13.31226570677007
C        -3.11375130398184    1.08574420447577   11.99776205435022
H        -2.92541062222414    2.10723383274579   11.70389334972379
C        -3.01125594622024    0.07898010038585   11.05131992968276
C        -3.17973703534011   -1.22623732418780   11.47876981598392
H        -3.05100239005876   -2.02657931605118   10.76473587074261
C        -3.50643655977422   -1.53372447572525   12.79255911837472
C        -3.46965777058566    1.96453200781209   14.29398025102167
H        -3.77168196044482    1.58582799820759   15.27330944668945
C        -2.05121673667927    2.51983668518237   14.44954966383650
H        -2.04210804785831    3.32617570695506   15.18017648946045
H        -1.67211057536744    2.90633740214807   13.50657502535333
H        -1.38294093698935    1.73325795839760   14.79476000227697
C        -4.45210147453863    3.06611220439843   13.89793014196820
H        -4.46213039356333    3.84501598279154   14.65756666158401
H        -5.45753283314859    2.66134769369476   13.81262014261731
H        -4.17695100280215    3.51922675088984   12.94850650968406
C        -2.69849891440614    0.38504386497536    9.60783069202161
H        -2.67511659130383   -0.56132902114850    9.05555728038120
C        -3.79049133213122    1.26587652898138    8.99708792160490
H        -3.59791427364315    1.42737181073724    7.93853165448370
H        -3.82671085461850    2.23404038437542    9.49045061583599
H        -4.76344870954026    0.79123965202102    9.10502299174042
C        -1.32600469533183    1.04754400715250    9.47249042780052
H        -1.08570523557384    1.20675332700068    8.42336147480144
H        -0.55672949578545    0.41686021232527    9.91287767735014
H        -1.30964892266072    2.01045647524990    9.97703707246098
C        -3.57055334343125   -2.99034806442733   13.18734542524419
H        -3.67785589489282   -3.05536230415534   14.26922733144797
C        -2.26483509423041   -3.70592711357308   12.82869635703104
H        -2.13105776161767   -3.77916466015546   11.75260949795823
H        -2.27128193744657   -4.71477303602377   13.23633702990834
H        -1.41289963845678   -3.17359565390154   13.24564747511473
C        -4.76427765379921   -3.69567014547497   12.54114761916643
H        -4.76109082063492   -4.75071609365188   12.80573133674857
H        -4.72476985350798   -3.61072880388978   11.45741297476302
H        -5.69721881322460   -3.26009539162274   12.88875397036094

