52
CSD_code = RUJQIW | q = 0 | S = 0 | Stoichiometry = C15H28ClN3O2P2Pt | MND = 4
Pt        3.99913058028266    0.76505895696696    0.82260832770342
Cl        1.96871443590470    0.97661451998142    1.96687938427278
P         2.80230370340529    0.65855880707610   -1.10552157694332
P         6.03839790245531    0.60415721733648   -0.16717335983115
O         6.61365821151827   -0.42160268320622   -1.03867077044718
O         6.43116380966611    2.05428064192775   -0.79511678691545
N         5.06636814022867    0.69893232553787    2.56485435019392
N         6.98119674553595    0.65549591322725    1.32379402002286
N         4.45373350687929    0.55154352932446    3.82507248760353
C         6.36156857349923    0.58696870453266    2.50951381222875
C         7.20510636549996    0.39336653039822    3.71002705538954
C         7.06252957681898    1.21802348128752    4.82165195778560
C         7.87572998792603    1.03354362219731    5.92455496876161
C         8.82612444267688    0.02550790098650    5.93185940922756
C         8.96871918601602   -0.79847149170176    4.82776082306423
C         8.16732284915441   -0.61298270250508    3.71590651916728
C         4.23529270306425   -0.84694724266344    4.16144288136557
C         5.92250105023527    3.22407821385805   -0.19668092048836
C         3.80564201147117    0.85368495883122   -2.63516591058122
C         3.05500736682726    0.74575636166721   -3.95603919127978
C         1.33195381355362    1.73796525863143   -1.33671432798824
C         1.73437754207769    3.20658063688489   -1.27962110440129
C         2.10991646245734   -1.04132721932834   -1.19299220259514
C         3.16100172887939   -2.02845332588210   -0.69301665336839
H         3.53751487492245    1.00335667942103    3.74602881762220
H         6.31767624646232    1.99739457648741    4.81324563219617
H         7.76582010572170    1.67845686757952    6.78337981181369
H         9.45515216428260   -0.11905067762690    6.79749501216956
H         8.26763357805420   -1.26465879794923    2.85908466233622
H         3.64880192668415   -1.37409746641141    3.39589407428595
H         3.69830187722846   -0.88302230069284    5.10607330061518
H         4.30555187497394    1.82380151062075   -2.56364599731362
H         4.59448448790983    0.09865874173290   -2.57242838703682
H         2.33714965665454    1.55527000438285   -4.07200189301757
H         3.76301699184095    0.80448697854328   -4.78017680089758
H         0.83912992788869    1.48782872902901   -2.27974171013973
H         0.64543172967789    1.51109174280954   -0.51740570259555
H         2.24105753612049    3.40725485952469   -0.33524414936945
H         2.40857270592032    3.46202355400804   -2.09489828263141
H         1.23321279132559   -1.06506732946150   -0.53907617174971
H         1.78962540325768   -1.27845784955584   -2.21042493624817
H         4.05177776272581   -2.00293015663912   -1.31804658907458
H         3.45887119892387   -1.75741986804767    0.32744215282469
H         9.70626346413140   -1.58714664027006    4.83062708973522
H         5.19899130220561   -1.34446004701952    4.27815647203541
H         4.98626720916864    3.00572565562485    0.34957891422090
H         6.64867232366756    3.64307441135610    0.50363192945239
H         5.72150384853379    3.94960195258533   -0.98639996577397
H         2.52626980912873   -0.20143315241191   -4.03752761075166
H         0.85805215669928    3.84851239768616   -1.34134009347496
H         2.76976228797065   -3.04382990645960   -0.68030371547887
H         7.98127406186292    0.51220261580205    1.28461094428923

