45
CSD_code = RUJQOC | q = 0 | S = 0 | Stoichiometry = C10H26ClN3O2P2Pt | MND = 4
Pt        0.86918433075342    2.67739296135653    1.90056840057686
Cl        2.55752515261901    3.13042331023285    0.37194624625654
P         1.92600916440242    3.74795276874629    3.57504431189640
P        -0.88717578742747    2.16530381402592    3.23538577841989
C         0.85479185185246    4.95284937371560    4.44868830829317
C         0.30149195709365    5.95347072717686    3.44025196052218
C         3.46971688152668    4.65318020103792    3.14631981617568
C         4.10652841176967    5.44877661602049    4.27725596490251
C         2.38865708484220    2.52792053747741    4.86439395291657
C         3.07049218497771    1.33832727308544    4.19509373594428
C        -3.07109131685124    3.54710769590627    3.76402804346111
C        -1.29152076767699    1.31481410429337    0.18728572132634
C        -1.90157914219686    1.28945389211621   -1.18654615927526
C        -3.47525129496945    0.60984666591524    1.02993899300139
O        -0.85496578782126    1.90401999144792    4.68521795866256
O        -2.03544934138239    3.27156292351364    2.84471346715978
N        -0.07125185561131    1.70375067992641    0.36810595139120
N        -1.62039780135424    0.75743047392439    2.50749063454218
N        -2.05697579264634    0.84936013379474    1.18846439696181
H         0.04093160209998    4.36788731179939    4.88361292171750
H         1.39909670337768    5.44641700848053    5.25693937856021
H         1.09185768145274    6.58899662899332    3.04504720135746
H        -0.15103692881028    5.40875283759471    2.60717689948619
H        -0.45767138528682    6.58764966732142    3.89369428238333
H         4.16239775680241    3.89884263271153    2.76407066123035
H         3.22602581837379    5.30505866380049    2.30360241220118
H         3.46713059952191    6.27101408269581    4.58932587014137
H         4.30699646188039    4.81875947688456    5.14100540335238
H         5.05243831071023    5.86901212606636    3.94064989594373
H         3.02272730787926    2.97759698954904    5.63145161102453
H         1.44966166066348    2.20674114718513    5.32199444096285
H         2.45106543185086    0.99678881475833    3.35596047871502
H         4.04887131648079    1.61188256423863    3.80485835686006
H         3.19310203687001    0.51364963977523    4.89365987956361
H        -4.01104552981453    3.11814302335971    3.40876327989808
H        -2.82847903974073    3.12030986192220    4.74009961200108
H        -3.17601863387405    4.63014230688396    3.84996133245490
H        -2.75149161889027    1.96764109886981   -1.23387541437335
H        -1.16872390006046    1.60552467555803   -1.92472533296259
H        -2.24680540610146    0.28935971404479   -1.44127972435915
H        -3.99937872250805    1.50842970855154    0.69782832776152
H        -3.66359885209148   -0.19983896410806    0.32211962641448
H        -3.85924898975692    0.32152032830114    2.00564242479573
H         0.43081791197963    1.93898184618826   -0.48697141298082
H        -0.98925972482711   -0.03020733513058    2.64544010474823

