133
CSD_code = RUJSUL | q = 0 | S = 0 | Stoichiometry = C64H63AgNP3S | MND = 4
C        14.75984051548445   11.61278667168042   -2.78795627805334
C        14.59515859743373   13.52084211371292    0.22336149979901
C        14.92715953799653   14.54396871243620   -0.65597763721517
H        15.96292825661485   14.75471361786772   -0.88072138221449
C        13.92902262356735   15.27997218433678   -1.26433296065340
H        14.19508797881389   16.05859369968116   -1.96488788265154
C        12.58808286153134   15.01672657085761   -1.01371929606019
C        12.26381758176468   14.00661048685634   -0.11606558486734
H        11.22696129515093   13.78828752611733    0.09519539865686
C        13.25285154571335   13.25766779640201    0.48551794448973
H        12.98715211442246   12.45367898213052    1.16283769804849
C        11.51924315160211   15.77823391186554   -1.73329869986278
H        11.77105687847324   16.83493041376011   -1.80161272679670
H        10.55864860295046   15.67076143726016   -1.23464623244953
H        11.42724394051148   15.39067530997847   -2.74814492660313
C        15.65360796609372   12.69833938803069    2.73968263059782
C        16.24833909639172   11.76390955228800    3.58272203666623
H        16.78272877704762   10.92846915620066    3.14529519814841
C        16.15014970740777   11.89060458431321    4.95386920072367
H        16.61597418053879   11.15478995860798    5.59478124897320
C        15.44653134529793   12.94975255166590    5.51531031062919
C        14.85269748558522   13.87978936898094    4.66762104294318
H        14.30409346904006   14.70823031276098    5.09402593570340
C        14.95078130696518   13.76157189222251    3.29442149292690
H        14.48115794594051   14.49175553481115    2.65042283682825
C        15.30948241219619   13.09055636617526    7.00109788576226
H        14.26626047568090   12.98016837653997    7.29673208963459
H        15.64080773654818   14.07655547035676    7.32282744171794
H        15.89782153888579   12.33839520475222    7.52070663934668
C        17.39459247371095   13.18071205171697    0.56375242725313
C        18.15172137358124   13.89058139974860    1.48646492291712
H        17.78782812406321   14.03264132771829    2.49436637085634
C        19.37833078223636   14.41390574781979    1.11663366996259
H        19.96095606697706   14.96389178031522    1.84307105120168
C        19.87295763805281   14.24280854531640   -0.16952813539102
C        19.10850599394240   13.52882258819884   -1.08895045031898
H        19.48107701431047   13.38459190399093   -2.09306126253071
C        17.88832347673890   12.99665290591526   -0.72858278903267
H        17.30351693436602   12.42622258459149   -1.44094356179798
C        21.19660457047987   14.81745476598631   -0.57304876581306
H        21.78142317610384   15.10384382513166    0.29807528011913
H        21.04546503429609   15.70419236604626   -1.18913990733535
H        21.76483182896259   14.09895181738913   -1.16124334832044
C        18.58851890803819    8.73598930498997    1.31704851308340
C        19.47824375492002    7.82539224558391    1.88172350535771
H        19.14152527050190    6.83135817383575    2.14085189307377
C        20.78711480959092    8.19635416460021    2.11113981690901
H        21.47481466033513    7.48722927108788    2.55080192460008
C        21.24136545906333    9.47279403683849    1.78523864214034
C        20.35069593667713   10.37135928613912    1.21393699168712
H        20.67927004159845   11.36634957625253    0.94926671298599
C        19.03889371946715   10.00435143460137    0.97753673978520
H        18.35077686996282   10.70595965113023    0.52129117419615
C        22.66938869948753    9.84919669185347    2.03395583333547
H        22.97300370726905    9.56437249143729    3.03972226082942
H        22.81612385333637   10.91896309004767    1.91059554008840
H        23.32031830882252    9.32943588394829    1.33100340013521
C        16.25967065028536    7.70815993100599    2.57856948846363
C        16.82984135495437    8.10814665884168    3.78212980967332
H        17.70655711623631    8.74148987590986    3.78057457975374
C        16.29020469825963    7.68485506910456    4.98193239696461
H        16.74877986966419    7.99526895322964    5.91085096820574
C        15.17405605438371    6.85883365634065    5.01434200337112
C        14.59429089656027    6.48028657049910    3.80845013465850
H        13.71923061184778    5.84620574319320    3.81315500103769
C        15.11808770222074    6.90895776626704    2.60692549600888
H        14.64652007903458    6.61464490786123    1.67809400417468
C        14.62399809080434    6.35951809627128    6.31439461791035
H        13.55065516801695    6.20378507098048    6.24351993973181
H        14.83093917882385    7.05938083117255    7.12057579904653
H        15.08671014472777    5.40555524475971    6.57128182021389
C        17.07938566242449    6.78029086357577    0.02183925349805
C        17.19103269774586    5.51405508346405    0.58258614444785
H        17.12688754785579    5.38348724418697    1.65413133739848
C        17.36065644619777    4.41097008773168   -0.23412538362577
H        17.43930576611929    3.42858610363124    0.21091478754667
C        17.42592494900243    4.54308627062737   -1.61572064697075
C        17.31827293152142    5.81516022955765   -2.16970769404364
H        17.35995795764179    5.93475215305233   -3.24277310472525
C        17.14443528553727    6.92047672533303   -1.36272913130534
H        17.03562800741978    7.90922956287930   -1.79878525219368
C        17.61782808030910    3.34703733793256   -2.49663722624490
H        17.01753609796772    3.43318703236278   -3.40008639178499
H        17.34795401706579    2.43048595310605   -1.97724772978544
H        18.66307488809572    3.27189386177328   -2.79810148107959
C        11.60934961878098   10.28832910893695   -0.16309007188116
C        10.57793853078459   10.73122423856654    0.65435805624967
H        10.55190248207443   10.45359502085170    1.69989350908439
C         9.58258379227460   11.53628146505000    0.12812304245672
H         8.78043517055055   11.87514375140826    0.77054136584981
C         9.60275612586778   11.92365717979223   -1.20577716962836
C        10.64729299011482   11.48354292436034   -2.01382544364773
H        10.69202747605646   11.79088643099809   -3.04797556293255
C        11.63873430062945   10.67578929680943   -1.50095465518014
H        12.45717617019758   10.35048328113952   -2.12934457395423
C         8.52612775488240   12.79680440036029   -1.77406337397705
H         7.96195185093421   13.28990666048407   -0.98532413461471
H         7.83301123343717   12.19804010466301   -2.36591929133997
H         8.95549383099503   13.55146831738765   -2.42973530032938
C        12.49313148677826    7.65964063958856   -0.37080171555859
C        11.16365088474005    7.28945927416152   -0.55460160115669
H        10.36989726808603    7.96422039004336   -0.26333410106231
C        10.85927275765674    6.06874327714447   -1.12486862413601
H         9.82410682732627    5.78850247783546   -1.26344034070915
C        11.86235260614092    5.19342681771205   -1.52992774276872
C        13.18726094008070    5.57823873186885   -1.36494659779964
H        13.98405773003742    4.92226912330401   -1.68738817107457
C        13.49705463760344    6.79935881218804   -0.79887983953154
H        14.53263850253056    7.10317817504901   -0.70120643763415
C        11.51752793053918    3.88265734340623   -2.16716509456788
H        10.59382361435486    3.48121714599446   -1.75668922566189
H        12.31549232962350    3.15850291561861   -2.02216003855120
H        11.37635034138692    4.01930227572474   -3.23957043389780
C        12.61431722779748    8.99688601529419    2.15531334522010
C        11.73783409395354    8.04555520668276    2.66195403451722
H        11.23620344349353    7.35891211112035    1.99497517637196
C        11.50798367923738    7.97462849095479    4.02390383964599
H        10.81618003283451    7.23637819753617    4.40693050525302
C        12.14450475141534    8.83703704100902    4.90829919161675
C        13.04152460325989    9.76879339256085    4.39785341999356
H        13.56254012777796   10.43938453093742    5.06666999274393
C        13.27354665830709    9.84406777683665    3.04094097352522
H        13.98001883863690   10.56890790821285    2.65393505999940
C        11.85857904103584    8.78880875282998    6.37799898081628
H        12.77022849790897    8.93872232237029    6.95200838157440
H        11.41034764167268    7.83961619610699    6.66180325870458
H        11.16199060502134    9.58439938357041    6.64526668885691
N        15.37142887823104   10.81827429702620   -2.17150703276426
P        15.80675754484974   12.38103955246385    0.95041223565606
P        16.84719491146993    8.32042861660522    0.97047736608287
P        12.99245637214092    9.24157918111618    0.38674460908217
S        13.95929720223264   12.66912720998221   -3.65946840353332
Ag       15.40186730087808   10.04628128668962   -0.15773496992658

