115
CSD_code = RUJSIA | q = 0 | S = 0 | Stoichiometry = C37H53B20IrN2O2 | MND = 6
Ir       15.71212225811108    8.55688806100065    3.55279266935751
O        17.75135777890137    9.37402794844211    3.31271826013524
O        15.20825635609234    9.93361137752048    1.89805084510074
N        15.51950534919033    9.91116345758316    5.00593107114454
N        15.88901550117269    7.17345544092641    2.12723644482205
C        16.24824365735016    8.11755143787636    6.34556527184320
C        16.22348212429535    7.41957133434534    5.11989100245238
C        16.62156354514017    6.08944023290910    5.15174818042766
H        16.66875722233272    5.51596403332734    4.23592032506222
C        16.95046083520108    5.45748407465832    6.33791795580781
H        17.26673694662719    4.42717567390715    6.29682903093538
C        16.87432950600048    6.11923002355159    7.56512180250075
C        16.56220766190385    7.47410744665513    7.53883430797457
H        16.54691331669000    8.02837661865513    8.46388153139675
C        15.89485403388813    9.52582564840906    6.24900838023804
C        15.92599610960216   10.44346818502257    7.29797805629026
H        16.23986563615238   10.12776152020045    8.27963054109887
C        15.56624840369206   11.75787320158252    7.07282104319693
H        15.59235292031031   12.47951998530546    7.87506408358528
C        15.16915768715801   12.13174039588758    5.79574230941008
H        14.87392391796264   13.14502957723743    5.57602473050250
C        15.16171981986628   11.17528189621457    4.79886214330908
H        14.85228151935870   11.42672884276403    3.79396865208647
C        13.60619908277493    6.84451806637907    2.60274211831568
C        13.85351851055450    7.80442059818341    3.60633210243599
C        12.76960402451413    8.17953049348247    4.38941798927702
H        12.89527453977940    8.92160236458183    5.16615692557060
C        11.50999084281013    7.63701591697802    4.19988929314347
H        10.70115124036738    8.00075400872649    4.81435960353478
C        11.27095436216578    6.65953352052782    3.23206474584155
C        12.34545591661247    6.27997536110157    2.43491395599821
H        12.19249403412184    5.54191017646923    1.66415822496072
C        14.75775797296149    6.51784252934141    1.77434797985813
C        14.75906134595953    5.62864992565870    0.70054944072297
H        13.85080338587792    5.11958734110709    0.42194101278336
C        15.92295448854476    5.40946852989211   -0.01016227785136
H        15.93496015689184    4.72818375118662   -0.84727301456120
C        17.07638196529675    6.08041179421834    0.37428799788225
H        18.00827688029576    5.93550222284360   -0.14798007036979
C        17.00958606110544    6.94853198938761    1.44683461729067
H        17.88752207775494    7.48376155139883    1.78106003972242
C        17.05519627004226    5.41210942692965    8.86536410931200
C        15.86542955252953    4.42755904016123    9.33299345402918
C        14.72833767836195    4.17655745601291    8.35438694321792
H        14.17434759083782    3.30096617814227    8.70183776130654
H        15.15110892332014    3.92106621845044    7.37840569398302
C        13.74104939099593    5.32911268291131    8.13235465283223
H        14.27481913674188    6.27837906683838    8.10607640428499
H        13.02485789866626    5.36701126816649    8.95611157928736
C        13.00350636185716    5.21782496881090    6.79789212349724
H        12.36040048940762    6.09426894066935    6.69917021080221
H        13.73477848812861    5.27176841442579    5.98612498808703
C        12.16853018678353    3.94798428071764    6.64102251033415
H        11.47916566902490    3.85105697062481    7.48329028392450
H        12.82989252248594    3.08012272082987    6.65296946512629
C        11.38388239690920    3.94969170052090    5.32589148953815
H        12.04746819378901    4.31393519381382    4.53935993267603
H        11.08391939401550    2.93026285364568    5.07451900506358
C        10.13634929709260    4.83220197006936    5.41336491639555
H         9.46370128003120    4.39485280238389    6.15713566883940
H        10.44152269288934    5.80892494310664    5.79658165973572
C         9.35089759443980    5.02398221723477    4.12801144976448
C         9.92860595811874    6.04470454734942    3.01981845344204
C        19.58105742439687   10.68056415628160    2.58244833139611
H        20.08028390788401   10.12915050300061    3.37567071084441
H        19.65097418942860   11.74730640373591    2.78554212021312
H        20.07817259663737   10.48087257933458    1.63494285684183
C        18.12296392871695   10.25998334032317    2.50598734313826
C        17.35157267324908   10.89590856661832    1.52872942618768
H        17.85788794986077   11.61670944467070    0.90378992032409
C        15.99093391532136   10.69279597471899    1.27822449494953
C        15.39528747099331   11.49883530779260    0.13630822152894
H        14.33586622934199   11.27301090646063    0.04235109248483
H        15.89992719233204   11.25168042879051   -0.79546917771249
H        15.52396878799719   12.56346580767372    0.32132277008234
B        17.37290709035516    3.70944699412189    8.89354553212348
H        17.40278721861508    3.11741213299126    7.88127656242447
B        16.47620373660230    3.11005135147335   10.26801219256099
H        15.92075346310927    2.07816836471546   10.16203019386455
B        15.65275542533032    4.45541114451904   11.03571292337319
H        14.56007802332814    4.31159546949411   11.44628266159576
B        16.03642207824127    5.92349768962491   10.17115122285330
H        15.25002820931731    6.76726999130980    9.96289129283130
B        17.76763289137721    6.19707971925597   10.22264176793475
H        18.18328071718426    7.28666502477663   10.06785335162837
B        18.58216255055845    4.85111601836145    9.43057756009945
H        19.51525067672818    5.06337019177668    8.74732923409405
B        18.23921188815140    3.37013127085749   10.37318443952085
H        19.00027531281367    2.47532104020891   10.42880859732903
B        17.17325571253146    3.82681057211917   11.72906337953585
H        17.18943121747160    3.24576087193015   12.75158119213248
B        16.89543459104906    5.58166591241772   11.65546298544246
H        16.72222415881394    6.24551998862103   12.61104360404575
B        18.49212465007822    4.91825841261086   11.21086431548289
H        19.44760688586979    5.12009171606753   11.86665590149399
B         9.88777121144003    4.36435121294753    2.62902311533554
H        10.90657944663495    3.78417694890653    2.61940566051794
B         9.43375735386741    5.56748221318870    1.43508094683930
H        10.16161761327005    5.79719715021006    0.54028980463770
B         8.64695048044848    6.91094844078846    2.25700413831576
H         8.87844327236616    8.01141986384554    1.91361689224648
B         8.56897902400104    6.54997702316886    3.96584314146660
H         8.73550304856811    7.32609063227707    4.82992740494253
B         8.45455728970028    4.09518782252311    1.65616684174413
H         8.42993521665886    3.23714212643721    0.85175930360783
B         7.66960890036487    5.68230462332258    1.40830456501273
H         7.09113215629906    5.93673818026411    0.41614166399519
B         7.13758043062457    6.29703390872993    2.98978217672805
H         6.18905663911632    6.97798607464587    3.12971583933188
B         7.62799268699111    5.09574124375925    4.21037064103732
H         7.13916694498390    4.92132329912975    5.26640678349605
B         8.44167411495024    3.76092692327614    3.40878394585927
H         8.47728865302349    2.70616988633225    3.92822281788230
B         7.03896998603793    4.54860240172704    2.63524791727431
H         6.00674680370541    3.99585231036229    2.52392729991341

