58
CSD_code = RUJWIE | q = 0 | S = 0 | Stoichiometry = C28H25ClNOPPd | MND = 4
Pd       10.10324160583839    6.15794080371398    7.28487902742582
Cl       12.02365107406323    5.05754406489125    6.96143837028517
P        11.15746849044609    8.07379399830531    6.98471542212369
O         9.16719778176343    4.40218645110125    7.77019797533712
N         8.32956964678116    7.09482587385257    7.59311895727723
C         7.53544514541320    6.69779546337156    8.53323302747607
C         7.83549498687741    5.57773349602545    9.39521450332345
C        12.07907175458329    9.98628268672251    8.87861974407462
H        12.21224434695962   10.68263399431100    8.06215201852356
C        10.12090904901564    9.42517278075239    6.26502596940660
H        10.61642468084990   10.39018782505823    6.40298753872036
H        10.04041392231416    9.23713531724913    5.18931265784901
C         8.73308602889657    9.43988387135309    6.90344819884391
H         8.15707547056118   10.27090758288672    6.48864230523325
H         8.83332032191505    9.60379944603310    7.98008868111927
C        11.60810664548847    8.69996593430274    8.63150047843362
C         8.62615865580610    4.46919867181265    8.92985829453976
C         7.94622176199723    8.13941395974701    6.66645966805880
H         6.87235207721221    8.34998731631269    6.74966382298003
H         8.14979879193882    7.77620209573086    5.64925084528528
C         6.20500811924125    7.32461792828040    8.75816066115957
C         8.71193955293921    3.34241499934728    9.79277508338340
H         9.28301189712678    2.50084692521117    9.42975845360478
C         7.24105974479626    5.51460825614492   10.66643896788291
H         6.66598548187910    6.36393803048276   11.01001268132019
C         5.05472036149412    6.58704880206310    8.49648525457798
H         5.14703474221547    5.57901877320749    8.12002495673788
C         8.13238665698329    3.32774860987901   11.03085949822250
H         8.24397208550158    2.46003674652620   11.66557869718980
C        12.62537830291095    8.13409917489999    5.92451031282980
C        13.51773586855072    7.46083840812813    3.79685245169045
H        13.40088157689300    6.96373506861008    2.84550028804030
C         7.39864205892105    4.42676372252008   11.48599752454079
H         6.95321136622883    4.41462390403060   12.46894404936279
C        13.84420024973829    8.70094113172158    6.26633092296090
H        13.98105771921026    9.15601208074093    7.23652771708006
C        12.46977982715496    7.49889081108303    4.69390657810125
H        11.52541479747948    7.00625200019772    4.47447023271378
C        12.37860658836365   10.37613279177108   10.17202969367138
H        12.74825626650721   11.37358713554376   10.36041063396991
C         6.09006438528583    8.61855044312278    9.25587947538528
H         6.98117655506379    9.18561533070094    9.48421777467933
C        12.20572430845952    9.49120643841274   11.22433871052732
H        12.44112258226670    9.80123820679591   12.23153842564904
C        11.73192219878124    8.21047299155219   10.98643509451666
H        11.59626379404669    7.52233084628132   11.80722476488208
C         4.84011250056610    9.16695448841289    9.48201035525042
H         4.75890137873619   10.16946356500371    9.87557476821083
C         3.69814647904516    8.43426337482382    9.20553393336198
H         2.72390611677868    8.86608804830758    9.37915530051439
C        11.43400462913669    7.81403488009090    9.69500212632456
H        11.06863126315205    6.79712413312626    9.49506793069268
C        14.72985210936542    8.04681940324913    4.13091038435426
H        15.55462799935405    8.01112937004383    3.43470722533216
C         3.80780608185331    7.14428297622718    8.71274906270646
H         2.91955569544685    6.56786368672583    8.50182834997648
C        14.89295828633913    8.65707516735550    5.36253855080840
H        15.84518813347269    9.09333971584394    5.62670560146823

