47
CSD_code = RUJWAV | q = 1 | S = 0 | Stoichiometry = C20H20Cl2N4Rh(1+) | MND = 6
Rh        6.43037211801892   -3.63236265916017    5.99318575498476
Cl        5.24204629530604   -1.86633802770216    6.96188940931172
Cl        7.62134526570942   -5.39728569766698    5.02447326253215
N         8.13192498201813   -2.52362489906938    6.06490641692515
C         8.11441797021022   -1.22047427494785    5.77003120427713
H         7.15730168000444   -0.78190862780408    5.52061153826922
C         9.25099090484502   -0.43249063906939    5.80256375958121
H         9.17893031171538    0.61522012459654    5.55941439344806
C        10.46313342434899   -1.00730139694569    6.14978569069905
H        11.36712149154069   -0.41977872661301    6.18209691830076
C        10.48027823690255   -2.35893482490156    6.45460385224705
H        11.39543086686348   -2.85825347231530    6.72873259484321
C         9.29962734751349   -3.07819085582562    6.40288943216408
H         9.30076912464825   -4.13845850282244    6.61822485783325
N         4.73055660148702   -4.74329483073705    5.92124668888841
C         3.86450512435037   -4.73941742215816    6.93874267863555
H         4.09460871218198   -4.10300205807059    7.78288425421853
C         2.69878261044434   -5.48431082573369    6.92963713961774
H         2.03335118699804   -5.44041578253254    7.77653895138235
C         2.40834060056720   -6.27295295504584    5.82791724133534
H         1.50859146155926   -6.86675257353188    5.79233299811088
C         3.30726035553586   -6.27636011865481    4.77333372416449
H         3.13273013048854   -6.87298373579920    3.89267828523303
C         4.44968444309439   -5.50061771049552    4.85687203713142
H         5.17066987042144   -5.50868938288588    4.05022572086259
N         6.83600443063921   -4.37440077529946    7.84087083018872
C         7.15851702607046   -3.56152102303444    8.85117992880302
H         7.17500638070690   -2.49936710157900    8.64603271605011
C         7.43520450994875   -4.02680884428002   10.12422321178913
H         7.68600186769857   -3.32594842022665   10.90392279264632
C         7.38165822413654   -5.38894466745961   10.37332529992021
H         7.59285642971804   -5.78191220930736   11.35537246962473
C         7.04942382247634   -6.23120121485567    9.32436473543495
H         6.99645471112815   -7.29923328550405    9.46063334061991
C         6.78384906264422   -5.68795299008706    8.08007673485076
H         6.54393331930337   -6.33411800528686    7.24611736487974
N         6.02667050105287   -2.88929151727760    4.14595205471841
C         4.82244013726172   -2.38884057295497    3.85496784808734
H         4.08416542924213   -2.38274922353941    4.64580672960724
C         4.51206857490847   -1.86542421570954    2.61256370533660
H         3.52543474818007   -1.46972143649811    2.43379918866909
C         5.47947195267073   -1.85799363884186    1.62047636338969
H         5.26753610228139   -1.45736816138061    0.64171036130398
C         6.72686906934390   -2.38051841511594    1.92224746401321
H         7.51559547300700   -2.40378869142999    1.18784670747341
C         6.96030682131171   -2.88236243358896    3.19010164350376
H         7.92256028949436   -3.31245328085347    3.43428970409113

