47
CSD_code = RUJXEA | q = 0 | S = 0 | Stoichiometry = C15H25Cl3N2OZn | MND = 4
Zn        2.66291100194791    6.20400450905606    6.22537351603037
Cl        0.31801465301937    5.99401369833068    6.57637472303996
Cl        3.73102508482252    5.07954151475795    7.89308469295518
Cl        3.29709632700444    7.84046110849227    4.91121840540325
O         2.55603464548845    4.48994662614744    4.90225028165484
N         0.96079849100782    3.00177952158059    5.43802810075775
N        -0.43135202354713    1.12806259217211    8.25532433142494
C         1.45811480120025    3.99468830281538    4.66878723048857
C         0.67125918461996    4.38874798248639    3.45016685510366
H         1.38522704542759    4.62598767518476    2.66032578765117
H         0.13849867162564    5.31096439604805    3.69465870191088
C        -0.30610872318550    3.29827132116895    3.04886674647688
H        -0.89408860960347    3.61314226748657    2.18662242136003
H         0.23421261147905    2.38771963644434    2.77956968077872
C        -1.21765215148397    3.04767820014073    4.24066813077957
H        -1.99037188998011    2.31979100565315    3.98821219096499
H        -1.69613712152421    3.99239066152301    4.50023960338178
C        -0.41659502526929    2.54670089058513    5.44868883029463
H        -0.37257457223398    1.44331951198237    5.40742086551160
C        -1.08786852357044    3.02678691884692    6.75873636932742
H        -1.01824209861219    4.12627883807266    6.73015619933448
C        -0.31299571786499    2.61141169427080    8.01004769249654
H        -0.75661159523460    3.09854348994542    8.88380171542665
C         1.15167125594819    3.00998553881223    7.88957774019763
H         1.17585139134551    4.10308985546558    7.85417310803394
C         1.73891479674315    2.52696112297370    6.56295184059878
H         2.74754785525460    2.93312686636072    6.47029080104745
H         1.79329831996130    1.43072877797868    6.49697616924122
C         1.96456292241718    2.55270041298739    9.09507144920595
H         3.00350338227249    2.83679635804580    8.93607822097273
H         1.61891210530163    3.09008295842365    9.97893508790724
C         1.81256405499779    1.05348513061101    9.32055363302623
H         2.26174246758155    0.49070471091263    8.50133790511899
H         2.32208344916512    0.75650443572244   10.23683715242364
C         0.33554754320566    0.70826722560338    9.45282884983280
H         0.19375414599494   -0.36686571777042    9.59372637255002
H        -0.08834302583823    1.23244634195993   10.31273337900525
C        -1.84360226070804    0.70398481865377    8.36601635485680
H        -2.26584327501581    1.20105285142023    9.24298977967938
H        -1.87395763327596   -0.37643614871230    8.53114231001049
C        -2.64302576087348    1.08450822336454    7.12848014296473
H        -2.27593062845413    0.53699988974959    6.25896495749565
H        -3.68171262164769    0.79168259568490    7.28349918532326
C        -2.54696713045061    2.58923925032171    6.89108567576561
H        -2.99478653377871    3.11607616761771    7.73548669292872
H        -3.11251052466923    2.86229813380619    6.00392761962922
H        -0.00986876104640    0.68734783686989    7.43031249962807

