121
CSD_code = RUJXID | q = 0 | S = 0 | Stoichiometry = C62H54P2PtSi2 | MND = 4
Pt        1.26923437309971    2.22240936860444    3.29663815807403
P         1.16109338772898    2.24077975313753    5.60112556867274
P         3.52610677549135    2.50583742379866    2.88847859096252
Si       -1.90530924808723    5.73268292510313    2.14699530163197
Si        0.04213118341710    5.59619539142427   -0.68361112610465
C        -0.57628952360794    2.05867484751222    2.43520117254462
C         0.32293645412852    2.00280600163471    1.49805383611223
C        -1.73469443339351    4.19308791766254    1.05296116589568
C        -0.86949364449527    4.09426028912292    0.03724716782247
C        -2.01395327945565    2.09838178044924    2.40041413133785
C        -2.57208631047446    3.08866963935042    1.57464097595738
C        -3.94109578978459    3.08748862351749    1.36137382467636
C        -4.75101060625080    2.13290256190494    1.95590430325066
C        -4.19928411119036    1.17806696287456    2.79271700686222
C        -2.83353073313707    1.15674033390030    3.01074328535839
C         0.26218362293551    1.87755640963075    0.06563119837431
C        -0.49148661376801    2.83639165717899   -0.63946173530240
C        -0.70184097411612    2.64630608267403   -1.99687127729797
C        -0.17797340640639    1.54596622114942   -2.65504315203316
C         0.60236359630738    0.63255565363121   -1.96616243357130
C         0.81879846626624    0.79706140823846   -0.61102677411086
C        -0.73508728755426    7.13134411372450    1.63897229493983
C         0.06867254634345    7.07016858645493    0.50006259193587
C         0.89340260464327    8.14887400688348    0.19524786199808
C         0.93468290657603    9.27453468002365    0.99569633824672
C         0.13939991606467    9.33524946932453    2.12836982482810
C        -0.68380645221921    8.26929373929394    2.43929467990412
C        -1.44644095498395    5.17503139762349    3.91664847013428
C        -3.68641645275115    6.42297208992054    2.13417557006547
C        -0.85765291811392    6.19443728096273   -2.26698001532365
C         1.83822121435129    5.13246459579270   -1.13390760606414
C         2.57424429601919    2.85394258277719    6.58140672200744
C         3.31569062255152    2.08131459767699    7.46467045550159
C         4.38140781042084    2.64142325096716    8.14734114175191
C         4.72016201822312    3.96863262743807    7.95064126079107
C         3.99849718485617    4.73951713393606    7.05302100265747
C         2.93639172289223    4.18275993145689    6.36897787636920
C        -0.24467085054998    2.94919852880773    6.53221635730453
C        -1.50705250064401    2.51870333007018    6.13274448417370
C        -2.64137880178887    2.98478708501073    6.76626808669177
C        -2.52541842368663    3.89675321838007    7.80418755171061
C        -1.27331114423847    4.33419132018318    8.20071293485036
C        -0.13310673491083    3.86429605500479    7.57059107092992
C         1.00072966887975    0.50070594218696    6.11482468323791
C         1.18146081837536   -0.46794403944169    5.13409769244710
C         1.06829632463310   -1.80996640490057    5.44681945694016
C         0.76664761958970   -2.18970770461871    6.74464136326609
C         0.56846047226292   -1.22771217897827    7.72320399363497
C         0.68129001357093    0.11522886780995    7.41274195109043
C         4.30098954959035    1.76666548715632    1.40763337044097
C         5.38099753577667    0.89358283523034    1.42764763508258
C         5.86687262273544    0.37121260537509    0.24065456882256
C         5.28279891553267    0.71205820291442   -0.96734720729310
C         4.20215374098184    1.58011128322777   -0.99124668325669
C         3.71318150309901    2.09992322644290    0.18997193423607
C         3.74629631030697    4.27102617602757    2.50201758720017
C         2.67682266596694    5.11317594497340    2.78563160219744
C         2.76302689171373    6.46918050756667    2.53245310518652
C         3.91732004392144    6.98701269226999    1.96832104534322
C         4.97672123113567    6.14912568887562    1.65478694447758
C         4.89708362772206    4.79381776735214    1.92061894765347
C         4.79195397387697    2.15232358578979    4.15429924192067
C         4.76937200805917    0.86650488763511    4.69082466898175
C         5.69274493928218    0.48619461872048    5.64389046558878
C         6.64122085167546    1.39586279772643    6.08390341593967
C         6.64984596238493    2.68349401129979    5.57658031250504
C         5.72924476433453    3.06550439362481    4.61629647958250
H        -4.37284745720617    3.83416130257671    0.71004725019615
H        -5.81557761315652    2.13943628200157    1.76998180217583
H        -4.83202905632513    0.44062773841759    3.26617556316089
H        -2.39231090952985    0.38951469871695    3.63348317734622
H        -1.30069458075569    3.36294248152646   -2.53890113731001
H        -0.36785392356203    1.40981285577946   -3.71021938002754
H         1.03475104209782   -0.21274505500102   -2.48245064517117
H         1.41252478329115    0.08088251471777   -0.05980476135301
H         1.51637512317577    8.10414549133892   -0.68665071632256
H         1.58067634954412   10.10322761527359    0.74041683895267
H         0.16189374865041   10.21046643619899    2.76300434503952
H        -1.30433741892981    8.32161799993551    3.32322494687018
H        -2.28047544786750    4.66870979360657    4.39364254682547
H        -0.61423849897612    4.47049657132991    3.89874465081668
H        -1.15901733321590    6.00740217115026    4.55219643477356
H        -3.75729259619262    7.30767975363911    2.75910170192378
H        -4.00082557060202    6.70431545436637    1.13361949295813
H        -4.39313383163848    5.69290325182215    2.51541218011885
H        -1.93652801075702    6.17484546068230   -2.14417219236273
H        -0.57405645096378    7.21638403500305   -2.50092035348311
H        -0.60713112685104    5.58110133844196   -3.12679588419879
H         1.87343911674346    4.17601195356875   -1.64673217153347
H         2.27991873617564    5.87205762480013   -1.79463036010204
H         2.46675968339037    5.06743652670678   -0.25043472480300
H         3.06503564011843    1.04195171576036    7.61946458532624
H         4.95132841486768    2.03566229823331    8.83697961359482
H         5.55040751539505    4.40035006586575    8.48998371012243
H         4.26664886216891    5.77281786961174    6.88581470666394
H         2.37195456007503    4.77557255402669    5.66005006121542
H        -1.58575304262323    1.82155381142050    5.31020184142596
H        -3.61574596399279    2.64303078170729    6.44801197600690
H        -3.40990642557482    4.26800493385683    8.30080623832721
H        -1.18128601881250    5.04629848786401    9.00844071715820
H         0.83929131700284    4.21059447611063    7.89089152930312
H         1.39545105974561   -0.14360199301934    4.11286192018884
H         1.20831287336525   -2.55959568478946    4.68149882034102
H         0.67628405605902   -3.23694197655553    6.99387964510822
H         0.32141933674607   -1.52765524733902    8.73151363308117
H         0.51565645557863    0.86833392641337    8.17155541176981
H         5.84593040426472    0.62154378675580    2.36477935774016
H         6.70805250794666   -0.30701276169763    0.26143225230079
H         5.66682322926429    0.29911929337275   -1.88865239845739
H         3.73591812255247    1.84427797852013   -1.92925422907524
H         2.86125973469141    2.76534688799653    0.18400854192019
H         1.76358105011567    4.67998195652016    3.19452906425509
H         1.93258606641474    7.11770380346362    2.76409381612200
H         3.98627757999575    8.04474348151036    1.76185381380335
H         5.86925301663055    6.55468927316473    1.20000600095609
H         5.71935794035620    4.13737009232300    1.66843235636766
H         4.01450916630228    0.16858669390468    4.34928047095616
H         5.67287634187309   -0.51603922652228    6.04730399739649
H         7.36698034681037    1.10314723061475    6.82835042081760
H         7.37993154011372    3.39724050368616    5.93006518887012
H         5.73951399458804    4.07469862282452    4.23100361186375

