55
CSD_code = RUJZUR | q = 0 | S = 0 | Stoichiometry = C22H26Cl2HfN4 | MND = 6
Hf        4.17354493624254    1.79768838846412   16.51472366288098
Cl        6.44679015658602    1.30995008130226   16.91304300916796
Cl        3.69739766129037    0.38701400889021   18.34560349719296
N         4.90824716470071    2.81152580584436   14.80924321981495
N         3.80594584008377    0.50618165828048   14.89534626970393
N         2.09755921078830    2.20283884153800   16.55532960268903
N         3.98844243078642    3.67434554310584   17.44725842498679
C         4.48379068200830    2.37080073567686   13.63292502555012
C         4.46147944179224    3.19434735153069   12.48868198514917
C         4.18460990766839    2.92422024685748   11.16517855742177
C         3.95410738958876    1.70435382058291   10.54957503846364
C         3.86882571568605    0.47106732572176   11.17525473449758
C         3.84776588123855    0.17176630158907   12.52131310451129
C         3.99013238756182    0.97815847159323   13.66772226263470
C         3.11094444091877   -0.74695568370444   15.12703834583393
C         1.63955496903299   -0.68589780400412   14.66619015085735
C         0.98492377330532    0.67855396605429   14.90200723030789
C         1.09625608669749    1.17179354487335   16.35808110767971
C         1.74728655876327    3.46407732820132   16.76668660807011
C         0.50579513775846    3.97789117850402   16.33948913948591
C        -0.10842746624150    5.19444465610160   16.54945435897097
C         0.28411456080708    6.24534523300066   17.36284595928416
C         1.45842366469352    6.32458425649442   18.09397620801381
C         2.55273078831844    5.48540461284203   18.08633700607114
C         2.79969193438695    4.26600127654001   17.42529097608745
C         5.18512350903643    4.39675889598948   17.83863098447533
C         5.50512449662688    5.55419413644616   16.86954035004023
C         5.17307491686933    5.23349859390330   15.40913586832787
C         5.82468081215785    3.93244292032212   14.90081662175259
H         4.64827807285688    4.23922396885184   12.70243265439553
H         4.18693837144813    3.78757097513818   10.51010128367620
H         3.84420237726235    1.71417056077332    9.47379990990029
H         3.76042249490085   -0.38154962068085   10.51509288629371
H         3.73935438999643   -0.88267898223626   12.73833456208372
H         3.15494898920623   -0.92971564034527   16.20738731579347
H         3.61322726588506   -1.59163274431333   14.63461568530390
H         1.57172692465966   -0.90895193622016   13.59929277859788
H         1.08272881682071   -1.45423720160681   15.20492341633976
H        -0.06832314648508    0.59454341918708   14.62477022021790
H         1.43736459079891    1.42332579918741   14.23966829066465
H         0.12048623991524    1.52149710193021   16.71521586404505
H         1.39433450874427    0.33840998469810   17.00531390928901
H        -0.03859586162031    3.30914389302992   15.68472582360097
H        -1.05192360079853    5.32765336249399   16.03311519573809
H        -0.39989019428875    7.07872375889684   17.44683641325759
H         1.55244805048876    7.19351518462268   18.73479837502756
H         3.35761003159142    5.80188243997379   18.73652449128092
H         6.00359437688268    3.66699250602490   17.82943242126497
H         5.11110782045167    4.78814067151831   18.86314003107960
H         4.94167838006045    6.44600544950511   17.15204928395836
H         6.56740569593842    5.78736698572967   16.95799586333651
H         5.51166927090565    6.07382196043149   14.79883457678468
H         4.08800914621398    5.15845568264042   15.28615406434647
H         6.30721829311730    4.10422452221049   13.93146953770186
H         6.61044170589756    3.61940220600781   15.59865583609836

