99
CSD_code = RUJZAZ | q = 0 | S = 0 | Stoichiometry = C46H34F6FeN4O6S2 | MND = 6
Fe       15.52677261774271   11.68508059646546   13.23805718084392
S        17.21411576879174   12.31018054750607   10.49562965556945
S        16.39019798893373   13.25161380805999   15.99314931687050
F        17.56889022462044   14.37468801915859    8.83755845192508
F        18.15954001107509   14.77436657901835   10.87135071644698
F        16.06817779854651   14.65493484214315   10.35602402077520
F        18.54099398969028   11.76750915549255   16.10394762337175
F        18.96086634895583   13.81628195396393   15.57506952581334
F        18.50952517334214   13.29808650952203   17.61783539246654
O        16.94700642978869   12.31469085126548   11.92964086097093
O        16.09115984793886   11.84537035810996    9.71604628631867
O        18.49564083269431   11.78386360601881   10.14286299710012
O        16.33177423471353   13.00407261390489   14.55665979628878
O        16.06652231318009   14.59318684354633   16.36579462705901
O        15.77512523087731   12.20129545064442   16.76982049789592
N        14.23286441517322   11.05943811102537   14.70815911208636
N        14.39041458785843   12.98906655312959   12.50280944992780
N        16.65916133715102   10.37494823134837   13.96649387150590
N        14.73020662505284   10.48794031491536   11.76538944348269
C        10.67517188542849    8.96715175222055   12.04513452403926
C        14.46193611655210    9.16548573305605   12.18943842815645
C        11.13644576845343    9.96240264816492   12.93537593137244
C        12.88639289637261   10.98229366440606   14.28295197604284
C        12.46452311359879    9.96898535136908   13.44527081391004
C        14.11573854018808    6.55286916812777   13.17713942599747
C        12.27725676620016   14.42476211624218   15.18733936962395
C        16.20629764218242    9.65628196269493   14.99888958650155
C        12.41529625417107   13.09458789134457   15.57132468574131
C        10.25193046882745   11.01162164568698   13.29367137164304
C        13.62444699553039   12.64090248692945   11.46395289565834
C         9.39695872010609    8.99827744700488   11.56099792613531
C        14.79062933157336    9.90543308857493   15.42468895999938
C        15.36101614467129    8.12988041135929   11.81704249237401
C        13.20329200161854    7.57761309455945   13.53610231603000
C        17.77993393585454    8.06858256821131   11.27568350311419
C        12.15265045431278    7.26237017256404   14.42640065151747
C        11.98980811397987   12.02077863023280   14.65333228887236
C        10.71345952105007   12.02621096223895   14.15269729456856
C        16.48226673799284    8.39684494020107   10.89595052799104
C        12.89172004797850    4.97543118347675   14.53438915146194
C        14.41818044823412   14.26941617865131   12.86584909349820
C         8.93824633412945   11.01170439782458   12.78153341218213
C         8.51675973131342   10.02419702835687   11.93613594142356
C        15.18481059030897    6.86549233370105   12.31718272579838
C        13.39884658007892    8.89148907124657   13.02694454958103
C        13.66768864195138   11.20189184660605   11.04588748151472
C        13.92897386954126    5.25234913511166   13.68886452478148
C        17.92830535640829   10.21842844407463   13.59637800691597
C        17.00288321360513    8.73896517844736   15.66634316945516
C        16.26327549814365    8.93038510943734    9.62821763576548
C        18.79067888769405    9.33702899046811   14.21849042675560
C        13.67910078186610   15.24833301936032   12.23097128499369
C        13.29801357443543   13.82518853459180   17.68906792749480
C        12.91314055703110   12.80503963927555   16.83950179198090
C        12.00159270872475    5.99256518427704   14.91007274780110
C        18.83999666950148    8.31581771580061   10.42434428849100
C        12.67500164806701   15.44087797558681   16.03534538261840
C        17.32546160239702    9.16409669350438    8.77514593280434
C        12.84086085192127   13.55974412280411   10.78323955757329
C        18.20558907491401   13.04086031344367   16.34484360616661
C        18.61652490550692    8.87277546745139    9.17675791313020
C        17.27644507604953   14.13110866414491   10.11595526370936
C        12.86254156466012   14.88921946436012   11.16944206532700
C        13.19482621715665   15.14351903771481   17.28354207688021
C        18.31985396734818    8.57029525339140   15.27351939265612
H        17.95034719578407    7.63135679380341   12.24876834103751
H        19.84481945832826    8.07368971997729   10.73620283976366
H        19.44610081200709    9.07650799890753    8.51896990296322
H        17.14143441054153    9.58656963747171    7.80046389823855
H        15.25639494463662    9.13794688079556    9.29591519576812
H        15.86826389986420    6.08014708324285   12.02976938907583
H        14.62543190907263    4.47956660136625   13.39836479740499
H        12.75258337595989    3.97732455374654   14.92148800616050
H        11.19216528269219    5.76566427842579   15.58755609647465
H        11.46421210597374    8.03907735352139   14.72360027983786
H        11.34606941959672    8.17508112020910   11.74837606355226
H         9.05739736779497    8.22923997239795   10.88356120481474
H         7.50915046453755   10.02849025277637   11.54867707781458
H         8.27239228565213   11.81118865659860   13.07153714841556
H        10.03359867267550   12.81522852198846   14.43856923732721
H        12.97391142923736   11.77984934394981   17.17510269127589
H        13.69068601102034   13.58538182532240   18.66404153317544
H        13.51632132513854   15.93708444543129   17.93869197353867
H        12.57968375034506   16.46910928746526   15.72031552315629
H        11.86869355035025   14.65330955737048   14.21369677143066
H        12.23530382291478   13.23108179626382    9.95334141572776
H        12.26871380828796   15.62416147638469   10.64890868760882
H        13.74816032983832   16.27073152299489   12.56365048081143
H        15.07119683040957   14.49541454887293   13.69176897646699
H        16.59192902966354    8.17844315676966   16.49119444555285
H        18.96181709270248    7.86943628076463   15.78382208288527
H        19.81077030886372    9.25920822269591   13.88073014230810
H        18.24491474506565   10.83931500254997   12.77540522518030
H        14.18336863377204    9.01507859295993   15.25431883887642
H        14.80058666627681   10.12067406638698   16.49882499513062
H        12.69961278225897   10.72979523115228   11.22058806101863
H        13.88025135745224   11.17458391907723    9.97154894270420
H        14.36000503578205   11.86821913475359   15.32002843661139
H        15.54958630173634   10.49937250008735   11.15445215112367

