119
CSD_code = RUKBIK | q = 0 | S = 0 | Stoichiometry = C46H51B2F12IrN2O4Si | MND = 5
C         4.32009658518512   12.83502970681271    9.00875924397311
H         4.38307822888039   13.78530898946871    8.50554555388646
C         3.86305295718192   11.70177895262557    8.32118155677390
C         3.76497713469293   10.50608305248327    9.02791973148883
H         3.46354930799119    9.59185418288435    8.53904798728323
C         4.09666380232236   10.48665519509312   10.38526284238746
C         4.02286851245568    9.30990755673525   11.18543951066293
H         3.69249157149065    8.39604800701435   10.71383631220490
C         4.35657902394994    9.32977661749754   12.49835947656078
H         4.30281308006128    8.43136288299930   13.09554437282566
C         4.77718038873385   10.53313619326851   13.13423338023564
C         5.12696403564438   10.60128393011913   14.48560455873430
H         5.11841689540381    9.70218123740465   15.08346808663964
C         5.51913731917398   11.82197333479701   15.02797045823217
C         5.52280624371822   12.94436460344671   14.18653826819433
H         5.77369279854067   13.92128019856373   14.56893153168939
C         4.85031987008066   11.72178614576519   12.36607460478222
C         4.53213167334388   11.69464272775058   10.98423899886164
C         3.50583124223665   11.81527578458109    6.90856310875192
C         4.18215032995857   12.71253197953623    6.07829760940215
H         5.00940849957502   13.28710495802687    6.46449112422212
C         3.81487127779348   12.85049657058345    4.75179133618743
C         2.77958102354718   12.10047252618789    4.20747951618957
H         2.49945442738968   12.21310058689356    3.17206126825835
C         2.11779529071902   11.20198642020904    5.03261464608629
C         2.46918355666279   11.05640994481780    6.36492582191445
H         1.91663685564083   10.36862923882954    6.98669929589977
C         4.51727750004355   13.85843565297555    3.88262899840236
C         1.01928598743324   10.34192986674418    4.46895878629110
C         5.91621736828755   11.97168245948390   16.42683310606214
C         5.32737446487143   11.20620592248228   17.43400578051114
H         4.55450663482640   10.49290741597782   17.19156056491143
C         5.70578215679358   11.37707492061996   18.75523059505798
C         6.67691250401796   12.30286780943123   19.11435935104826
H         6.96420773701750   12.43145472302166   20.14584699416188
C         7.25981302855085   13.06079204402731   18.10879259964787
C         6.89485944181473   12.90173003618378   16.78198951585321
H         7.38522054221370   13.48979361040884   16.02101255017262
C         5.08040776682500   10.51684388346188   19.81964809097874
C         8.31993471507457   14.08034833840670   18.42675772647858
C         2.98921536043199   16.81334689559847    8.61149919206600
C         4.04127293947569   17.91873058420997    8.97998135550407
C         3.20536824736728   16.21459242964846    7.21395151033949
H         4.23879693396602   15.90282703398976    7.08609945763726
H         2.95192958757134   16.92996656354903    6.43769891441738
H         2.56558669418038   15.34043679715752    7.10378871835887
C         1.52933733231002   17.24077790856131    8.74434260263308
H         0.88965175125687   16.40867437831998    8.45919927736593
H         1.32011628170405   18.08237750215440    8.08952694919797
H         1.29658614430074   17.50960294516020    9.76936960213032
C         4.72938134754431   18.57933019674300    7.78750083124762
H         5.42684977679280   19.32697472689852    8.15598475138011
H         3.99601761574483   19.06656751230661    7.15054265423947
H         5.29168214202869   17.85685151844608    7.20538249564055
C         3.46878770645569   19.00174224709826    9.90148207979344
H         3.05693866268903   18.53637904428097   10.79297634798994
H         2.71077043875759   19.59505224655639    9.39844015323370
H         4.28310503374610   19.65337513122945   10.20880225796861
C         4.30357824840676   17.87537231078292   14.18463967781898
C         5.37475698452646   17.06240888006462   14.99235125310774
C         4.87090174694423   19.16415663006745   13.57874697917367
H         5.73025150389589   18.92859777551784   12.95687743739030
H         5.14847800536109   19.87488347476750   14.35146936106870
H         4.11098759452583   19.61302218729124   12.94427391153761
C         3.02328552889965   18.19970490479291   14.95135105562514
H         2.35713153904375   18.76253133677464   14.30209514598004
H         3.25029998841796   18.80252643817784   15.82668522194665
H         2.50712774575030   17.29582143826296   15.25885634212632
C         6.56297665306129   17.87647089427631   15.49885724052442
H         7.22863594544704   17.22301326553789   16.05738973525172
H         6.22275155090286   18.67043712349903   16.15795866496730
H         7.12135147472124   18.30291176777013   14.67244062638986
C         4.77597282246729   16.27683972483642   16.16805288683565
H         3.96938679690468   15.63301066501874   15.82486414439395
H         4.40380461465855   16.94834682452148   16.93561219105486
H         5.55242638167723   15.65220085086221   16.60481907242763
C         7.77824942566646   14.16470110488348    9.28145065474642
H         8.85875413818646   14.06571916164249    9.18170871935060
H         7.37007069839166   13.15799573075676    9.18975164223177
C         7.25416476670090   15.02342270424078    8.13852818019015
H         6.19252466173955   15.20598894338945    8.26961651300818
H         7.42363944030499   14.54740079663826    7.17237891971814
H         7.74888344825533   15.98930105400103    8.13319684932931
C         8.01388112630137   16.70493423675516   11.11457029661464
H         7.35761437176978   17.32318322952636   10.50706351858825
H         7.91929523934505   17.06341500333011   12.13717511748818
C         9.46040365409013   16.87650824970453   10.65338840328846
H        10.13485367945187   16.27417361371363   11.25563322577951
H         9.76808715000815   17.91769684783185   10.73797094990107
H         9.57507287762783   16.57403755642411    9.61695263327311
C         8.46574249396924   13.82541591754037   12.26135330022029
H         7.97526556638783   12.87499883410577   12.47023540278685
H         9.40602513663444   13.57788718333061   11.76891446315122
C         8.76668708979868   14.53207943257421   13.57818432352560
H         9.44196109446732   15.36594807384980   13.41389449851528
H         9.24118651892113   13.85327102257963   14.28725064544998
H         7.85294563483188   14.92910341594040   14.00710887279981
B         4.47872258319506   16.01471249798646   10.18117490744197
B         4.97846114641632   16.05770768874869   12.94857925989427
N         4.65608927412163   12.84536598972697   10.27896196735889
N         5.20719012895092   12.90794965749143   12.91191882620158
O         3.26574204084543   15.78174750711487    9.56294316288198
O         5.00883020939756   17.20087658629846    9.75194732509919
O         3.99767898259288   17.00655335301542   13.08920536570150
O         5.83520832703167   16.10659353458704   14.03207388191147
F         4.70139402888137   13.42008317512183    2.62976527044331
F         3.81335850342157   15.00217044204805    3.78305455828580
F         5.72385860643919   14.20141278362791    4.35307678914008
F         1.48331910794174    9.13988966466391    4.07558987202474
F         0.42343351753790   10.88561026421693    3.40178515445903
F         0.05243055278883   10.09080326418542    5.36546422746497
F         5.77817763588633    9.38116756228996   20.01397202357682
F         5.01308039303075   11.12702992442528   21.00914224592045
F         3.83144103389209   10.13765784940715   19.50932953253565
F         9.49988115608363   13.76938817695988   17.86354351912435
F         8.54504614187882   14.22422972260942   19.73620768163303
F         7.99351680765315   15.29844480113027   17.95703269454667
Si        7.34957450685485   14.88134772522811   11.04961311721841
Ir        5.05262620012230   14.58298535484486   11.52247652656884

