75
CSD_code = RUKDUW | q = 1 | S = 0 | Stoichiometry = C34H35O2P2RuS(1+) | MND = 8
Ru        5.08117681717812    9.77694672076364    4.08923290685866
P         5.99467512779677    8.86067502178722    6.00516542167760
P         3.41423167114533    8.56893098120595    5.17717971671513
S         5.63500840804872    7.86767059737546    3.05991072677359
O         5.56402287484843    6.71933046624761    3.95028277906367
O         7.40715911550425    5.94370656213089    0.78252804824457
C         4.53756553380173    7.79282304830432    6.44632514499032
H         4.74284309872862    6.75202742411594    6.18996081576623
H         4.20624689933764    7.89918137790821    7.48220448005222
C         4.73838413618605    7.41677996152774    1.54752710712524
H         3.72551334720039    7.15456791361993    1.83656667623378
H         5.23447242303721    6.56652992341007    1.09216175816042
H         4.73605635326735    8.26909045508947    0.87736520719491
C         7.33974476445225    7.85622286706518    2.35314705883409
H         7.32972643185049    8.47848931193997    1.46083933224272
H         7.99345046344592    8.27585371221568    3.11792693587318
C         7.73378706183379    6.44036263373531    2.04490018698995
H         7.57328150600551    5.75554230078722    2.87407093571804
C         8.76694459888368    6.12930200931457    1.05318287279027
H         9.24524291533218    6.93740583315352    0.51244954194958
H         9.35324827852149    5.22541560118500    1.15962750169151
C         6.13296219019495    9.95114657147950    7.44681796380844
C         7.23533032944153    9.97248672402674    8.29226505999266
H         8.07726510852165    9.32145112964130    8.10682527593015
C         7.24472339626796   10.83200695731985    9.37830632529502
H         8.09936370556879   10.84880543828212   10.03725158016456
C         6.16561038309702   11.66516921180952    9.62170264611655
H         6.18117084821887   12.33235044763768   10.46960585945112
C         5.06505470729342   11.64490633712145    8.77681183623862
H         4.22309052593985   12.29324557527657    8.96701394548303
C         5.05082700860650   10.79451685102138    7.68946144332088
H         4.20216580417460   10.76786663396765    7.01332864496635
C         7.51254048287895    7.87580709517312    6.02318645694655
C         8.65072124486101    8.52286082397250    5.54058170922542
H         8.57250541974394    9.55898011266375    5.22856580196553
C         9.85893505630750    7.85514232572836    5.48244903601269
H        10.74050612237056    8.35872351453460    5.11524519163896
C         9.93350458678856    6.53403384995815    5.89834235472864
H        10.87425077629278    6.00789872822422    5.84886310020099
C         8.80586307911523    5.89192561129673    6.38309533058857
H         8.87090131220200    4.86655209779172    6.71391275719720
C         7.59311779975541    6.55709503071563    6.44912168159017
H         6.72039949785439    6.05165638631588    6.83234879131633
C         2.47366894725432    7.24507869390652    4.36264933290416
C         2.46763861165740    5.90998232652098    4.74125334178850
H         3.07354784715318    5.56632910161041    5.56549875423234
C         1.67741616932903    5.00814268380134    4.04798252085161
H         1.67275150508418    3.96901088792681    4.34016383614760
C         0.89346246865080    5.43092635482509    2.98750719758726
H         0.28021869645856    4.72132328864559    2.45396453864243
C         0.89291240358451    6.76579483810848    2.61050318507838
H         0.27906876402986    7.09694373810094    1.78654767266735
C         1.68282249883175    7.66921521988180    3.29486219874716
H         1.69719498544341    8.71753169949483    3.01702695486727
C         2.08381823618955    9.31914549239014    6.16140555201764
C         1.67155892135403   10.62455489108541    5.93167965225033
H         2.16663953198606   11.21043704018371    5.16995120351340
C         0.63649296972861   11.16287587468934    6.67620456349101
H         0.31717482231212   12.17888167870949    6.49958523176941
C         0.01041319350401   10.39660648173924    7.64491170053413
H        -0.79498261217419   10.81682368007425    8.22710550421252
C         0.41082653092206    9.08686091525808    7.86464154990316
H        -0.08563310266761    8.48885207642112    8.61345802015252
C         1.44213366240550    8.54375097511027    7.12299337418792
H         1.74894466245989    7.51822427544396    7.27816932941564
C         6.08589448729888   11.80184792273494    4.14696738820554
H         6.82926513233299   12.15086885998868    4.85131079075993
C         4.68103479323737   11.98364710415586    4.27974606379691
H         4.20497620744040   12.57810334331692    5.04845916643974
C         4.07219548875538   11.54372674539766    3.06171135010509
H         3.03757994659124   11.68753217097856    2.78273149386276
C         5.08807543583804   11.05516335662243    2.21832517177791
H         4.96327175128812   10.77137622841108    1.18155317586247
C         6.33946805269748   11.19969849336564    2.89503593602349
H         7.31455777911303   11.06606138424637    2.44753630106987

