55
CSD_code = RUKGIN | q = 0 | S = 0 | Stoichiometry = C22H24HgN2O6 | MND = 8
Hg        7.85317998505456    2.23451861424388    3.04992882669887
O         9.16640024205674    2.30881436686196    5.54248825164796
C        10.57243731696535    2.25699749565637    5.43846733220483
H        11.03437851882532    2.66363468211397    6.34807909146332
H        10.90517284726204    1.22292622815091    5.28121031374760
C        11.00805726357676    3.10244766766396    4.24716227641798
H        12.09524318547691    3.26568309062606    4.29797973126016
H        10.49781162425780    4.07492932993417    4.28433751051702
O         5.02062433657976    2.42053342288197    3.05438335530291
C         4.69778951077332    3.15027519174008    1.89035026449023
H         5.20709291124732    4.12395604666907    1.89290836220698
H         3.61043045671166    3.31440528952102    1.84635263175409
C         5.13400549392565    2.35485133048913    0.66528354798144
H         4.80255967936521    1.31477710466834    0.77996944559636
H         4.67119350792029    2.79804484392683   -0.22661875720520
O         6.53996035639311    2.41247404307243    0.56299468054698
C         7.14731506611435    1.72589387957861   -0.45588600502273
C         6.47000181441824    1.05585402827742   -1.46027048608090
H         5.39244685085061    1.03720607870222   -1.47299703289498
C         7.16488311846708    0.39238526985000   -2.46185206399122
H         6.61636761533992   -0.12393034592742   -3.23409247481796
C         8.55926659370435    1.57838808188957    6.53050946952209
C         9.23662630278838    0.86504606466089    7.50454474247880
H        10.31419032583769    0.84623117593005    7.51669520168585
C         8.54171496640462    0.15786221627321    8.47575542756822
H         9.09025219339630   -0.39197549906108    9.22447145041087
C         7.85273083299557    0.09440543010016    3.00154853049202
N         7.85212170551405   -1.05448006353630    2.97290454602573
C         7.85324425508658    4.37854239547754    3.09506089143685
N         7.85317103308104    5.52906455861967    3.11928059130601
O        10.68595210232175    2.42052925704959    3.05424739973549
O         6.54019526509255    2.30903835759729    5.54259153003317
C         5.13415092995059    2.25735618027875    5.43859522365690
H         4.67226770147979    2.66414839597786    6.34816560651520
H         4.80131424811922    1.22329711725475    5.28146605314358
C         4.69859384877235    3.10268701417683    4.24718243632160
H         3.61142358161702    3.26602496007130    4.29799069674728
H         5.20892810990285    4.07512813522130    4.28419815740592
C         8.55929472258317    1.72610236412513   -0.45597025193302
O         9.16657943528226    2.41273265628855    0.56292311488450
C        10.57254952587199    2.35534550082997    0.66511814841613
C        11.00870451272482    3.15053988756174    1.89035434105942
H        10.49931013916265    4.12417228572734    1.89312747426694
H        12.09604704104075    3.31478070467908    1.84637543916376
H        10.90419839337584    1.31530386893265    0.77951327487202
H        11.03523308677191    2.79885198622645   -0.22669780366490
C         9.23668903509223    1.05630017859871   -1.46045674053574
H        10.31424927842305    1.03799772215771   -1.47332991077695
C         8.54188535446984    0.39260292193641   -2.46194148715309
H         9.09046435128921   -0.12349617298603   -3.23428296115557
C         7.14727226176833    1.57851807731439    6.53057451408059
C         7.16472378262280    0.15800339977429    8.47582111555179
C         6.46986031782354    0.86527827045711    7.50464582858891
H         5.39229413620289    0.84667468544042    7.51688680867976
H         6.61614892784801   -0.39177977374404    9.22455233934085

