49
CSD_code = RUKGAF | q = 0 | S = 0 | Stoichiometry = C16H24CdCl2O6 | MND = 8
Cd        6.27871648107219    3.18028122496295    3.33219332640466
Cl        4.52954727156463    4.76845616839653    3.36935283103487
Cl        8.19753059703945    1.84564476667519    3.16603157288046
O         7.91386214380741    5.31056053919570    2.65616540143471
C         8.59028972624810    5.78890224523211    3.79375855261489
H         9.12581934253796    6.71981540753332    3.57629702645356
H         9.30948525380149    5.00243667207272    4.04274901254071
C         7.64106839941517    5.96536131755126    4.97987832139494
H         8.13323792661000    6.54074167449097    5.78025735755230
H         6.72775660651728    6.48975901597154    4.66261097511479
O         7.32112013780740    4.67277902433591    5.44849497430729
C         6.38686173429997    4.67833967248774    6.50521099455483
H         5.43489694646406    5.11292405599656    6.16994684548994
H         6.78336046525923    5.26073485093349    7.35133778237919
C         6.15745752183652    3.23503810425136    6.93053480225208
H         7.12917889599992    2.73005085263897    7.03610603101153
H         5.62646715848268    3.20635328756761    7.89526741413127
O         5.38268693599644    2.60617596060572    5.93713128482861
C         5.16230869278049    1.23748613970259    6.17975880358605
H         4.65247698324868    1.10116591867166    7.14668218615893
H         6.11752806570288    0.69226597373852    6.19120726730069
C         4.28868280544300    0.69758238077404    5.05526838679856
H         3.99160212891097   -0.33886049285119    5.28013045299321
H         3.38842840053031    1.32231436520737    4.95909259642060
O         5.04445376053380    0.73879118736752    3.86887482061044
C         4.38621408472934    0.18221964665670    2.75622041447880
H         3.42530786664356    0.68963014528768    2.58330412509886
H         4.20496232732739   -0.89108122692348    2.92522489402840
C         5.28239270601465    0.37427378609847    1.54077324424653
H         6.31017307843761    0.08628301560542    1.80145113537387
H         4.92248475104124   -0.24567800691061    0.70504564780095
O         5.23215933544064    1.73809270993547    1.17979679249578
C         6.03339246576795    2.04270083054968    0.05816220284642
H         5.69510970046284    1.45760506524217   -0.81118998254423
H         7.08822384124315    1.81475088979054    0.26726535049400
C         5.88138306301699    3.53148618566101   -0.22738848991936
H         6.27943469180089    3.76489491085735   -1.22516349923838
H         4.81643770908695    3.79458604909940   -0.17553037495732
O         6.60919211761225    4.22139286330989    0.76236523435855
C         6.50183008746775    5.58275325532110    0.81608151290842
C         5.78892901468453    6.36897059563814   -0.07076524297735
H         5.24902849949684    5.92313545903349   -0.89047798435917
C         5.75200341520556    7.74734217139491    0.09405894126869
H         5.18827204371045    8.34873741502722   -0.60206562337109
C         6.42054129653759    8.33773344880032    1.14350888880587
H         6.38422669013943    9.40718478228212    1.28220714875644
C         7.14508629413920    7.56106788950311    2.03864306556563
H         7.64867928548805    8.04710623931236    2.85930112056081
C         7.20351125259536    6.18811156591860    1.88003245802915

