75
CSD_code = RUKHEL | q = 0 | S = 0 | Stoichiometry = C27H32N8NiO6S | MND = 6
Ni       11.27157489591620   11.17023111250779   10.17463020829481
S        12.20446461118437   13.16903806784711    8.88006855064310
O        10.92299248724586    9.95388805190643    8.38224595289633
O        10.85753630591008    7.87020765108308    8.86309573419689
O        10.01734293801463    8.58907854915031    7.02996073650154
O         9.61893935770255   11.93254961891009    9.88550315990476
O         9.40567614062519   10.07117405061613   10.88478775663999
O         7.66806332668576   11.23369717039772   10.39972083048272
N        12.77933322317334   10.26376569964668   10.60289205269883
N        12.62429311352293    8.93518360601470   10.65114951976057
H        11.83344383086328    8.47361087744027   10.16844992617030
N        11.32109124636442   12.13876180560714   12.08817294149330
N        11.45541496863247   13.46567184735945   12.05124848053173
H        11.48664220886484   13.92994553884592   11.15078288428472
N        10.71298074048922   14.43006321119230    6.94088558134060
N        10.57884689086509    8.76764474104204    8.08011191562653
N         8.85251751904089   11.05757825206462   10.40093564655579
C        14.47920268930875   11.92827456334866   11.34049331155987
H        14.05429868653060   12.58333322995835   10.58465946885009
H        15.56198878607694   11.92166641309146   11.24344681193192
H        14.22798272370229   12.32028900087000   12.32585353555529
C        13.94843266914643   10.54916518771018   11.18033070228275
C        14.55166730930081    9.35992595094593   11.58937399037759
H        15.50548977785766    9.27255963437759   12.06647266769745
C        13.67975189805027    8.33670341906914   11.23000111706589
C        13.79467354572909    6.89814883964441   11.40056209418299
C        14.78791746698886    6.37650411792902   12.23142271709041
H        15.45697328856699    7.04554513756348   12.75025642235585
C        14.91495793517351    5.01205999748539   12.40353874301206
H        15.68743419886232    4.62279805861350   13.05050736705197
C        14.05442279939039    4.14504446339529   11.75016962391890
H        14.15501689537482    3.07837115697771   11.88473184129137
C        13.06573946571568    4.65313631007067   10.92383677901877
H        12.39330230746035    3.98200217383303   10.41114199608906
C        12.93094466565153    6.01749082353668   10.74587436759275
H        12.16001268946061    6.38709711088508   10.08893834881339
C        11.16147335925398   10.36082488956294   13.77548057642857
H        10.60591933717269   10.27895876576518   14.70583056540538
H        12.14756490778390    9.91931466696984   13.92195556771851
H        10.64636981186088    9.80435321937927   12.99428686189821
C        11.28854093614662   11.78243009144352   13.36736543407656
C        11.39784552513358   12.92751385102322   14.16586051002002
H        11.41088153430544   12.95876447121225   15.23545319740749
C        11.50641653623178   13.99809459424878   13.28812295824831
C        11.66225451791848   15.42218825307445   13.52900878939726
C        12.23554654695335   16.24937777643829   12.56247998823079
H        12.59326470271314   15.83055544441535   11.63341683998298
C        12.37703577705911   17.60335483784354   12.79918574585806
H        12.82468753034674   18.23408639104013   12.04549068796488
C        11.95280668789021   18.15136749070351   13.99860549146071
H        12.06435675224420   19.20972090638734   14.18008568210342
C        11.38817338195654   17.33611612091325   14.96593898791475
H        11.05719992006855   17.75919368765739   15.90264298458349
C        11.24337396892376   15.98148582157610   14.73560795143052
H        10.79135297895386   15.35038848643831   15.48507149376957
C        11.08834494557799   13.31665017081705    7.61715581319211
C         9.81097945814129   14.04117960891076    5.97495935455716
H         9.35069618125280   14.72890318189820    5.30088877704169
C         9.64699250495064   12.70151505933382    6.06778837521656
H         9.03254202573650   12.03172935557450    5.50376869833045
N        10.45055977751498   12.26990694237523    7.07758998555685
H        10.55500506861565   11.30676466678915    7.43821473872896
C        11.18416388642896   15.79726207236614    7.18652936704805
C        12.69265287339688   15.84535850715597    6.92928813614205
H        13.21108714225576   15.15168550058587    7.58492957448680
H        13.06629948844403   16.84797459302210    7.11514528000473
H        12.90861539614802   15.57874421407250    5.89717203442739
C        10.86516837161966   16.17571879950842    8.63509237404889
H         9.80439113103150   16.04708501410948    8.83706407922203
H        11.13282253915342   17.21268658953839    8.81487209414225
H        11.43105219001550   15.54744643268429    9.31493401495748
C        10.47885096937746   16.77445474828178    6.24643141309926
H        10.69671616572859   16.55014684166726    5.20505089381903
H        10.84008410454350   17.77823210361211    6.45363359278084
H         9.40294746370775   16.76526039052447    6.40374730563827

