96
CSD_code = RUKMAN | q = 0 | S = 0 | Stoichiometry = C44H44FN4OPPd | MND = 4
C         4.52396502282528    6.10795788295688    3.26743953711093
C         4.59009790436731    6.96738529481677    2.12379740061341
C         5.78978764037018    5.49463826207604    3.32916842174975
C         3.57899244661184    7.84270921009878    1.54015883323821
C         2.21402541421502    7.59569759549508    1.67753155519876
H         1.86642526336786    6.71272388312750    2.19098672652119
C         1.29194259177317    8.46163655501342    1.11764319966852
H         0.23620324922404    8.26010948819532    1.22802663754998
C         1.71563131251265    9.57710544306388    0.41547097767447
H         0.99074588461106   10.25173224387060   -0.01564593131352
C         3.07158310272653    9.81669102668480    0.25785052077905
H         3.40616348697982   10.67844691704894   -0.30056023534394
C         3.99854329677553    8.95659413591131    0.81224194997829
H         5.05666655555687    9.13046624950487    0.69730086503830
C         7.80529039526664    5.69886339681492    1.86037905498423
C         8.48580099276234    6.65686758598034    1.11616575801348
H         8.00014125492869    7.59364964815383    0.89899342899272
C         9.77201046284718    6.40126472452196    0.68303181378947
H        10.30209853616714    7.15478512405527    0.12085487325506
C        10.37970130478189    5.19100922801368    0.97408378653670
H        11.38817496572009    4.99557196088821    0.64185617253532
C         9.68489162242390    4.22585147020036    1.68335413654475
H        10.14477334027863    3.27176011335630    1.89410889243171
C         8.39600995969833    4.46859127336011    2.12280499653198
H         7.85714596287667    3.69918280662814    2.65283966241798
C         6.23919514339438    4.50186735096018    4.31557342471829
C         7.37742621420015    4.74047396572972    5.09268688741380
H         7.95873114995713    5.64314140515727    4.92962080340906
C         7.77065466423782    3.80330516769000    6.03207445765908
H         8.65355088152577    3.98146778599581    6.62817865793640
C         7.03974221591985    2.63851851522973    6.20911898525623
H         7.35363720830301    1.90970081208318    6.94137448459920
C         5.90910759249554    2.40595627992440    5.44408407603866
H         5.34073601681594    1.49759569069588    5.57901269148007
C         5.50329810932798    3.33299748772857    4.49981669885772
H         4.62759296939327    3.14982324396091    3.89308284042546
C         1.57421874070312    4.56386519399485    4.14759564667051
H         0.80920780029694    3.86060115909214    3.88357020200650
C         1.65908476545517    5.37945617652022    5.27575497920822
H         0.94061414917423    5.45070903605547    6.06523106489904
C         2.84594086695138    6.08460093689913    5.12336847696025
C         2.68776235143111    8.79830031722707    6.06303169746289
C         1.19631598887287    8.50678270106705    6.20317671287540
H         0.96479787370240    8.02633957868549    7.14974692537386
H         0.84085658041830    7.87408856394342    5.39352144377533
H         0.64684892734550    9.44647976455868    6.16098615077167
C         3.13655936570320    9.79113664665620    7.13408971333547
H         2.73920023176830   10.77958020010407    6.90746660908008
H         4.22344533738153    9.85817141484167    7.16939123132023
H         2.76726661371995    9.50268325605234    8.11475538672184
C         2.95505501170308    9.39592921892842    4.67740839835990
H         2.42547767258466   10.33998196861133    4.55849504268542
H         2.61558655498691    8.72201253346435    3.88952870054725
H         4.02763437742624    9.58376299348647    4.54771826327525
C         3.92445980284676    6.44152767933967    7.78223879850977
C         2.61641919014506    5.97169828081557    8.40972887909829
H         2.83457969172174    5.52822016651944    9.38084423281225
H         2.13165668582879    5.21445141894952    7.80199486495296
H         1.92926348616007    6.79823604432473    8.57071378569048
C         4.64917746329827    7.36270754029703    8.76535823610288
H         3.97702938794239    8.10439214721295    9.18605590725456
H         5.48038137724658    7.87470803148341    8.28370821993572
H         5.04665777780839    6.77150873444815    9.58914592409978
C         4.82072977427043    5.23502490522336    7.48530604402467
H         5.08256020396212    4.71485212215408    8.40494817636931
H         5.74587554800375    5.56946534779906    7.00078387955819
H         4.31872896139159    4.52510502311414    6.82715495072392
C         6.73237715595014    8.63320679093131    6.26005941791543
C         7.63787659200262    8.03090910994904    7.12689697522265
H         7.73242787186034    6.94950437016204    7.16638979769707
C         8.44888387552925    8.79852288420135    7.94750714126573
H         9.15861408624082    8.34318560294396    8.62083089459860
C         8.34445270319088   10.17514269913677    7.88452148458083
C         7.46567316546102   10.79955856736964    7.02198836329397
H         7.42151580234142   11.87682538908216    6.98424480963303
C         6.66086508774623   10.01887942480595    6.20505390640200
H         5.99648198584784   10.52137819750413    5.51034108409296
C         7.82458975704240    8.79890118455061    3.38559854425360
C         6.76570904042315    9.62569288893221    2.96868096964843
H         5.74030511147764    9.33145407372688    3.22961898004506
C         6.99739415579132   10.76702194020963    2.23036256522811
H         6.16236331707411   11.38479246230415    1.92543424436496
C         8.28782681974686   11.12245592343372    1.87491192178317
H         8.46830471593759   12.01578678410228    1.29553391783954
C         9.34505153063025   10.31778275024950    2.27285628943879
H        10.35642882004930   10.58832581879910    2.00121900800103
C         9.12841638968302    9.17892787588134    3.01615844361834
H         9.95078487035244    8.55013476587015    3.32572088651498
N         5.79222433231670    6.87755791865650    1.58350853103805
N         6.49984804595065    5.99633814712481    2.28327163696416
N         3.36986643813614    5.66329802285415    3.94092241436603
N         2.61240214263960    4.74689918479794    3.35367860948123
O         7.63079982080704    7.69844857262083    4.05846951288447
F         9.12781664606327   10.93142884515547    8.69095093274504
P         3.80521292433818    7.27305310469796    6.08623797496400
Pd        5.77031009981032    7.47936837319467    4.96210515535594

