23
CSD_code = RUKMOZ | q = 0 | S = 0 | Stoichiometry = C6H10NO2ReS3 | MND = 5
Re        1.42258335582185    2.84428303470422    0.64815401560404
O         1.89832056148598    4.09967822917975    1.62968827614108
O         3.65721411502844    0.26292314905396   -1.69497323634175
S        -0.52058585073024    1.72406886756024    1.12127366737043
S         2.63033128761820    1.07125057339156    2.01537614168444
S         0.30143386496111    3.98161948349728   -1.05389381567716
N         2.35611688877930    1.93934109605435   -0.86605702692063
C        -0.01263154404599    0.46608123114701    2.35691897849636
C         1.29547005344430   -0.19356386562315    1.96719103912189
C         3.69968873479914    0.54681359878943    0.65223926601692
C         3.21922830688411    0.90976660108064   -0.76073164957466
C         2.08826789710902    2.34149360525757   -2.24860573719013
C         1.65940393383335    3.79655476448441   -2.27050261800566
H         3.87172457581318   -0.52779066805639    0.71685596213092
H         2.98840893912248    2.18017463539618   -2.85290430173481
H         1.28542490694257    1.71284836987239   -2.65581188954852
H         2.47144315626041    4.45988017647794   -1.96998109657048
H         1.27453173858109    4.08933627549155   -3.24478371540077
H         0.06722138333173    0.95520110743428    3.32861315803479
H        -0.82204174201674   -0.26427843552785    2.38693201491670
H         1.56855518441115   -0.97686122624675    2.67591681825569
H         1.24496644359829   -0.60541917348860    0.95786312975158
H         4.65052380896227    1.05929857007107    0.81872261944506

