52
CSD_code = RUKMEP | q = 1 | S = 0 | Stoichiometry = C25H20N5RuS(1+) | MND = 6
Ru        0.72263574753714    0.84171855373413    6.20669279620383
N        -0.26567804020851   -0.92186631694685    5.89906291014688
N         2.38402128483719   -0.24879436380004    6.18224314638688
N         1.28770722116604    1.12509914271363    4.30635461734499
N         1.50016744293893    2.53766667484709    6.89206784807065
N        -0.91893685578765    1.96524597116197    6.24446144547933
S        -0.13693734574042   -0.09171081219966    8.32107442568924
C        -0.63172362284567   -1.25902630881725    7.15576040402078
C        -1.32665044432980   -2.44134870803213    7.42454650367717
C        -1.63075306289954   -3.27699210310588    6.37330970043037
C        -1.24024600744617   -2.92447862569245    5.08034242689331
C        -0.56011417562971   -1.73904608344229    4.88973193529395
C         2.90815627403711   -0.88413924195465    7.23050209544048
C         3.99137812556100   -1.73604177969104    7.12754081035200
C         4.56483724769553   -1.94523908309321    5.87934073978653
C         4.03996661970008   -1.27651691640435    4.78902230294117
C         2.94954880048571   -0.42564059840225    4.96430401587591
C         2.33126495374673    0.36167902660833    3.90036334289984
C         2.76539250093712    0.37814011780118    2.57504512785487
C         2.12790900407638    1.19006307091648    1.65644046245548
C         1.06751058253418    1.97890401181542    2.08900626588908
C         0.68514554210624    1.91320020831620    3.41404332906665
C         2.78909072583637    2.77394982693550    7.14424104331554
C         3.23688920043945    3.91113300737869    7.78683643680520
C         2.30850890820073    4.86136352522991    8.19414392809778
C         0.97231473846440    4.63557861497588    7.92453269797062
C         0.58917293007425    3.46670837124772    7.26850903968815
C        -0.78806101489141    3.13874179191165    6.90561952773436
C        -1.89318798031019    3.93975784034120    7.18743560101535
C        -3.15027824407116    3.53654001496638    6.77723396522119
C        -3.26952702428056    2.34306555160501    6.07672409628686
C        -2.13256484613698    1.59648744893545    5.83453586385438
H        -1.60183419105530   -2.66879238786392    8.44130092519274
H        -2.16489638933409   -4.19826679826951    6.54558211084489
H        -1.46248430882553   -3.56144134241719    4.24067849156514
H        -0.24033944801455   -1.42413588230091    3.90210720732401
H         2.43185198321909   -0.70136858173030    8.18691738592057
H         4.37358945887891   -2.22834033504630    8.00645399640327
H         5.40451463659469   -2.61108805522438    5.76133525098124
H         4.47020010760080   -1.41559013822136    3.81127028976076
H         3.59345363101597   -0.23880295238059    2.26819589478512
H         2.44935834393893    1.21313713901959    0.62774608915909
H         0.54679983329104    2.63239609886476    1.40861691269945
H        -0.13785819471698    2.51485566834815    3.78173538650332
H         3.49263180878603    2.01744611610561    6.81633393896697
H         4.29021961625896    4.04823631445496    7.96836018219343
H         2.62213166060875    5.75629730130112    8.70681579524094
H         0.23113266590024    5.35723656061512    8.22453638804359
H        -1.77203125731813    4.86224232675803    7.73000303247433
H        -4.01804678023905    4.13748885581699    6.99625249176079
H        -4.22797118595916    1.99278076693126    5.73044506527227
H        -2.19428117642791    0.66060749537974    5.29144431271987

