24
CSD_code = RUKNAM | q = 0 | S = 0 | Stoichiometry = C6H12NOReS3 | MND = 5
Re        4.23733287499534    0.79014582045632    4.63329288769645
O         2.91196022713491   -0.17277242028606    4.92537636497980
N         5.45103731355509    1.59347021595702    5.88717003086465
S         4.56526713180407    1.67814667485707    2.50542776475482
S         2.89723709263547    3.02583762159971    5.03860895778675
S         5.96289841779332   -0.74222043182360    4.36583297670128
C         2.99385157607826    2.59721130175991    2.29332196027812
C         2.80677038948583    3.69160568076701    3.32834615287453
C         4.43639196531558    3.80575859000322    5.67404068311177
C         5.14922972647652    2.82137823525723    6.59544190607997
C         6.61211852129328    0.90784225874882    6.43654123749403
C         6.56160289290164   -0.57332748373444    6.08830786305643
H         3.02374231243018    3.02959051847215    1.29183256378200
H         2.18236639474090    1.87012192074331    2.34628744453415
H         1.81735535428568    4.14066326931243    3.23500650784627
H         3.56843818162619    4.46373918176000    3.23045439918440
H         5.07174385943651    4.04004118661326    4.81860182557399
H         4.16146922445389    4.71766544385827    6.20336446364420
H         4.52149137201072    2.61849525608418    7.47843750789716
H         6.07892710646431    3.29059503188810    6.94667421757810
H         7.52467117253163    1.35711395103877    6.01551364146791
H         6.64382003095280    1.02613568751839    7.52881596796725
H         5.84801651136569   -1.10129214210733    6.72214793616001
H         7.54056035023201   -1.04354536874567    6.15105473868237

