74
CSD_code = RUKPIW | q = 0 | S = 0 | Stoichiometry = C38H29Cl3NP2Re | MND = 6
Re       11.87207341692287    6.39984105930482   -0.30145121214848
Cl        9.73440684493188    6.35632479628842   -1.10372574537512
Cl       11.14109038052803    5.33291505823391    1.74661101363669
Cl       13.09850591089559    7.30412967052251   -2.04882388527151
P        13.90504256919360    6.42811882168469    1.11137507959518
P        12.17231516576739    4.33476620410954   -1.60123288984530
N        11.92480582532618    8.60969182057002    1.82353887908403
C        13.62969850141697    7.22027772481063    2.73936950165385
C        14.38254313224280    6.86185891713849    3.84826224021762
C        14.22503758649224    7.51878351077732    5.05833950500353
C        13.31636823109969    8.56126071537027    5.18176230027580
C        12.55304848233855    8.94252683229678    4.09865218209215
C        12.69865325373978    8.27216630759467    2.88047263080875
C        11.51839374835069    8.12905353421150    0.61582293257708
C        11.04180784123717    9.37144118162673    1.15491120357763
C        14.78236498358320    4.89955767642204    1.57790323981967
C        16.17294816960001    4.85442929009953    1.65158882637153
C        16.80873978742149    3.67096923969024    1.98211343802415
C        16.06996417141429    2.52731823937075    2.24049440748105
C        14.68668573077848    2.57014403680517    2.17624762197509
C        14.04320242459265    3.74972346304944    1.84653179095061
C        15.22698330348386    7.47218749659294    0.41661134787473
C        15.53619438441757    8.73392521863390    0.90952737425111
C        16.49326266420235    9.50669707737671    0.27353425099862
C        17.13839235473780    9.03144430310818   -0.85490773920788
C        16.82794956361634    7.77535618884340   -1.35330379231239
C        15.87314676989445    7.00127495988066   -0.72527225962167
C        11.77216072811650    2.77783274714613   -0.74726589136434
C        12.57028635009794    1.64075213555656   -0.72823401956302
C        12.16072878144619    0.52450078821965   -0.01915880962738
C        10.95772222190229    0.53137280399245    0.66642933929938
C        10.14658672287495    1.65461259075688    0.62929367754724
C        10.55083431068680    2.77209793480509   -0.07421434058044
C        11.08595014229427    4.21508290269612   -3.06420498871354
C        10.83623570820682    5.35639365875811   -3.82340817967843
C        10.03293898835441    5.28478896391781   -4.94586132078077
C         9.47135057610748    4.07570544057411   -5.32197098065126
C         9.72125092137359    2.93763102805515   -4.57428152857398
C        10.52606155917834    3.00242253334527   -3.45074523722409
C        13.80665430342036    4.06110041115703   -2.36189921011806
C        14.87278956639548    3.66081032435423   -1.55927196428059
C        16.14152681331822    3.52017685623168   -2.09176305496466
C        16.36591169720995    3.79683552010068   -3.43016027768454
C        15.31435072430529    4.21136028996751   -4.23038518696669
C        14.04225384332446    4.34420472241182   -3.70346139621307
H        15.09619846587615    6.05541161570838    3.76769214972819
H        14.81579594089347    7.21554191002721    5.90917879418653
H        13.20307919424163    9.07165716716246    6.12581939799974
H        11.83070950031062    9.74158376082295    4.16830859001475
H        16.75628368468623    5.74120296966962    1.44842613485353
H        17.88732831295681    3.64246488535191    2.03656601734321
H        16.57317293796810    1.60532449235063    2.49147297969572
H        14.10332307360566    1.68320635673516    2.37354556853043
H        12.96494167494870    3.78446997863578    1.79165967520210
H        15.03578489126327    9.11666619603134    1.78803815602166
H        16.72836800310575   10.48765349740258    0.65931526812766
H        17.87831141191621    9.64181234727657   -1.35074922270885
H        17.32184088839563    7.40252875998065   -2.23822914797699
H        15.61733504871023    6.02594249457139   -1.11613422030865
H        13.50237015247741    1.61530632023008   -1.27413331612473
H        12.78566020687413   -0.35736189275411   -0.00731329331519
H        10.64827987619866   -0.34152482136709    1.22257609109521
H         9.20193803659822    1.66058880684804    1.15212286868217
H         9.91842623009377    3.65029356620816   -0.11130759567743
H        11.26807997190189    6.30548050309038   -3.53428779903397
H         9.84083698716143    6.17657345516602   -5.52426069899774
H         8.83722442247426    4.02138872390463   -6.19470468290835
H         9.28534898507377    1.99235193961455   -4.86400436863461
H        10.71140555535949    2.10817842670127   -2.87251629070803
H        14.70618247771886    3.45968621020356   -0.51176597959215
H        16.95510659057691    3.20463904458131   -1.45388973853145
H        17.35740086614996    3.69418750418595   -3.84613987566534
H        15.48515207018306    4.43647796758017   -5.27297250245580
H        13.23299538538240    4.67360281761398   -4.33820183117259

