51
CSD_code = RUKPES | q = 0 | S = 0 | Stoichiometry = C21H23Cl2NO2PRe | MND = 6
Re        2.79881367147452    1.58997345744911    2.29005169982911
Cl        2.16057870393399   -0.62544366526301    2.44795974952509
Cl        4.34094280903622    1.13224749522619    0.56831772062069
P         1.15919408592533    2.49589426449733    3.84368455048431
O         3.91917711011699    1.54994140021896    3.50703412930826
O         1.62568971880640    1.90117244488659    1.00563281265125
N         3.25409401420563    4.15889028617878    2.37772102609281
C         1.86691661428452    4.07465265806296    4.40536298407499
C         2.87126906888423    4.69739198815694    3.65194224254586
C         3.45918123704187    5.85230958360613    4.15793116819518
C         3.05865560329528    6.38309296643218    5.37136969311736
C         2.05842712356255    5.77075092435140    6.10679915959596
C         1.47183968135008    4.61578337888180    5.62520066442894
C         4.68269299947278    4.26910032785800    2.09207892493442
C         2.46402040809252    4.76108848246180    1.30991858528680
C         1.14185839535786    1.79703521422417   -0.26601407823894
C        -0.44972363409554    2.88132128927060    3.11644259633958
C        -1.14662420635506    1.80406676359979    2.57051171772076
C        -2.35435604530407    2.01753123292461    1.93477516177853
C        -2.86658224345260    3.30318862978022    1.83505250322517
C        -2.17225788392549    4.37452397916223    2.37271145165861
C        -0.96108412989176    4.16949952559537    3.01190790393599
C         0.78960500433869    1.58607111608705    5.36384635378478
C         1.81291221741039    0.80392649134359    5.89368613393401
C         1.59110873731802    0.07578962577998    7.04749912229659
C         0.35244329460997    0.12125073345961    7.66876682790252
C        -0.66843184935842    0.89181853472623    7.13578034003044
C        -0.45669929032539    1.62494195843182    5.98176894683134
H         4.23898307445665    6.34947030380485    3.60248171914956
H         3.53233367169535    7.27980933836345    5.74171924986103
H         1.74667393114128    6.18303799786352    7.05410020958521
H         0.70745039553234    4.11282479228526    6.20070613219235
H         4.99092810568078    5.29466900959065    1.86121527584201
H         5.24180299392660    3.89356520923782    2.94702093750907
H         4.91102722085747    3.63543453049438    1.23458358518232
H         2.64543080730621    5.84205415702510    1.23723128865778
H         2.73764856584555    4.29541923574244    0.36384492420203
H         1.40139764874151    4.59537102212390    1.49497604941902
H         0.55141300635300    2.68285999237746   -0.54120702473757
H         1.98523559561355    1.68237389902129   -0.96475261739989
H         0.50118048937996    0.90821159956180   -0.34395102220664
H        -0.72139650963130    0.81072237718001    2.64660727893544
H        -2.89564241619624    1.18529741088024    1.51018961425460
H        -3.80765426588802    3.47074492535524    1.33280210664085
H        -2.57260515570511    5.37451233065971    2.29130923545563
H        -0.41611143597602    5.00416221683211    3.43317898329301
H         2.76507610190288    0.76518584867063    5.37854025755566
H         2.38012852654087   -0.53571544400074    7.45754370092215
H         0.17755978644401   -0.45341757554655    8.56618194885555
H        -1.63514243857054    0.91781346282075    7.61710372076137
H        -1.25567891531117    2.21868227228197    5.55813435419825

