131
CSD_code = RUKRAR | q = 0 | S = 0 | Stoichiometry = C63H63AgBrP3 | MND = 4
P        15.94941449846080   12.23708279608051    7.46787547289683
P        17.07572846657406    8.17156458388877    7.73226410128160
P        13.21467589508469    9.21336411555101    7.06443263665379
Br       16.02667856964529    9.96177535957235    3.88770501546394
Ag       15.62217692831842    9.87929625991912    6.41002875572810
C        14.63695741724948   13.38606158101835    6.94969047700238
C        14.81850859569977   14.31507521581038    5.93120398887588
H        15.78724207362848   14.42346718236417    5.46453117924160
C        13.76078640776569   15.09948106327893    5.51456256539954
H        13.91217565742008   15.82004921246606    4.72307463180910
C        12.50370787146075   14.97836887700506    6.09571435661878
C        12.32527632374155   14.03749246952612    7.10226538800385
H        11.35394703937397   13.92011060928128    7.56125200831629
C        13.37250833371647   13.23988321901897    7.51581809245752
H        13.21126440380160   12.50054738072353    8.29046657363837
C        11.37641833310726   15.85667741578611    5.64699583701875
H        11.55151049764872   16.88498382100152    5.96464645237004
H        10.43232148823548   15.52225158936240    6.06863818539998
H        11.30008983781607   15.85505372452000    4.56108809152594
C        17.46863448504858   13.13414060407755    7.00871237399567
C        18.19251947897280   13.92574625377845    7.89144581391925
H        17.84706301836938   14.06761122678275    8.90582883731012
C        19.36596418931558   14.52869709057781    7.47528882647120
H        19.92225070555610   15.14146783417407    8.17165265255205
C        19.84224664693062   14.35617106071999    6.18207516107155
C        19.11481718153202   13.55659483122871    5.30526107806630
H        19.47461219301191   13.40279623090355    4.29828128477242
C        17.94665960938829   12.94607679836430    5.71191536779166
H        17.40416584469637   12.30669438743127    5.02650902224327
C        21.10919912099042   15.01401950706980    5.72793114905025
H        20.88160439988651   15.82242028000654    5.03287120588750
H        21.74568029311302   14.30034078487331    5.20757649939844
H        21.65867446725548   15.43007395299311    6.56915311864438
C        15.93164489776935   12.43797859978726    9.27999267459186
C        16.43303497555674   11.38447939651126   10.03664130231447
H        16.81710585708144   10.50531326033832    9.53223047967923
C        16.42589347929795   11.44026007610048   11.41619427456678
H        16.80725312462837   10.60448312210388   11.98540248748923
C        15.91618406136273   12.55269733770678   12.07443712149106
C        15.42535754137470   13.60957810067105   11.31407601719531
H        15.03058065999574   14.48359692576848   11.81357166709532
C        15.42986572845824   13.55927968436967    9.93359836824068
H        15.03881346594275   14.38847320993984    9.36049321628455
C        15.90831226280737   12.62416285040343   13.57100736354010
H        15.94204843716826   11.62864119913541   14.00774908869788
H        15.02030838292721   13.13990455474614   13.93061841618820
H        16.78058628082273   13.17667781870528   13.92208889353147
C        17.28037369778084    6.56295790623192    6.89582218827787
C        17.25383975400711    5.32993570817305    7.53594630424691
H        17.11203179912869    5.27178320150694    8.60653447334030
C        17.39590967007698    4.16748080552421    6.79993356075324
H        17.36906074690953    3.21290100002909    7.30786042560923
C        17.56744201064983    4.20606509601358    5.42202885890204
C        17.60067315271329    5.44494669470112    4.78932572919914
H        17.72815220883523    5.49589788989335    3.71785917887414
C        17.45763682571370    6.60952580958367    5.51428578514337
H        17.46557796691945    7.56672513999782    5.00769429593154
C        17.72666576956885    2.94585432458856    4.62779524201857
H        17.16865485258293    3.00632643006800    3.69544449940289
H        17.38360273105646    2.08114805627393    5.19131367348346
H        18.77698490884809    2.79474654723319    4.37659804862943
C        16.57863150202087    7.66576193825313    9.40764722509058
C        17.29424419496824    8.00039993750486   10.55210122299025
H        18.23610378445121    8.52558093476071   10.46759178231109
C        16.80760606702653    7.65605172196390   11.79867615812575
H        17.37662514607956    7.91225065144281   12.68253445869357
C        15.60258593243018    6.97738888650814   11.93793705247853
C        14.88593626681302    6.65598661799034   10.79138930619750
H        13.94479220315667    6.13204745675603   10.87701125230243
C        15.35884365356641    7.00627586852704    9.54370328717548
H        14.78345024519984    6.76048686204886    8.65955212727066
C        15.10491378777696    6.58628810667751   13.29561688991611
H        14.05728411138936    6.30021644375144   13.25612188990848
H        15.22213499378465    7.40684642358721   14.00133492490386
H        15.67761327426196    5.73911030020533   13.67474311088422
C        18.82568689235021    8.63418276955876    7.95379361921496
C        19.78871932204200    7.71759397996824    8.36747544428928
H        19.50425557547721    6.69470413469919    8.57363109078271
C        21.10172333507433    8.11711344078457    8.51147295057377
H        21.84569273667783    7.40148729646375    8.83328521732996
C        21.48744907431746    9.42873709742071    8.24562463878224
C        20.52286687535048   10.33537354660870    7.82595465458052
H        20.79893345065252   11.35741023013251    7.60761401111975
C        19.20690168364339    9.94068091880404    7.67817207666491
H        18.46481859513501   10.65384629121855    7.33779551579672
C        22.92126228138873    9.83864943690588    8.38391152450205
H        23.47851543649054    9.53994863917755    7.49548919862788
H        23.38171057454086    9.35679996273731    9.24409505060588
H        23.00828746246411   10.91704287770763    8.49165355640823
C        11.91687166952794   10.35743666238649    6.49800481245684
C        10.78578394883452   10.68723446418146    7.23481827277705
H        10.63903399723851   10.27020004644066    8.22222155730424
C         9.84594994162747   11.55086572675814    6.70342044942724
H         8.96401132275783   11.79634825838568    7.28022397842032
C        10.01386011769067   12.10573406311213    5.44039364530605
C        11.15957395412597   11.78749128363123    4.71931539597886
H        11.31389730561111   12.22077714481649    3.74183128540952
C        12.10219888325110   10.92591491286558    5.24039336470773
H        12.99312808400450   10.68782479956990    4.67232872439786
C         8.97099843007793   13.00905230380790    4.85670107080364
H         9.42130088188134   13.73629165190956    4.18564623944576
H         8.42423745325907   13.53350163798917    5.63766903884282
H         8.25336444688322   12.42202389929375    4.28189758054700
C        12.68839475133593    7.67281485243649    6.24429292405388
C        11.36796157927281    7.39598126012303    5.90371530648068
H        10.59221341590759    8.12037685062440    6.11296215871704
C        11.05065576864740    6.20099568171204    5.28684111952393
H        10.02207044061706    5.99462975897683    5.02439547170062
C        12.03231638029120    5.26072523760440    4.99227555476551
C        13.35132137873423    5.54892012609872    5.32304414321441
H        14.13329971377265    4.83960533127266    5.09103052296875
C        13.67494229208834    6.74247892752747    5.93581741570616
H        14.71088517302390    6.96503799896502    6.16500433273935
C        11.68281503285384    3.98017976569974    4.29888804220324
H        10.65174442588245    3.69661446314872    4.49767865201819
H        12.34149840940738    3.17516460512314    4.61734069374321
H        11.79836722969744    4.10175704349719    3.22138653547285
C        12.73620566174911    8.92487255303450    8.80096050178346
C        11.85201382938863    7.94027695767224    9.22540956980360
H        11.39311020460856    7.27643997712888    8.50593971638582
C        11.56064748030957    7.80816949544326   10.57045184433607
H        10.86568160610113    7.04321691668279   10.89020711199704
C        12.14477997645682    8.63920477440708   11.51963794982639
C        13.04423900185858    9.60847688734655   11.09068547141763
H        13.52413369921835   10.25634254442370   11.81095059139610
C        13.33679957175190    9.74580692685473    9.74994763618029
H        14.04985433413449   10.49369615789784    9.42775073302938
C        11.79992713050898    8.50803616510959   12.97154960798193
H        12.65563205771341    8.75605439071480   13.59518082868662
H        11.46762906921012    7.49918492810671   13.20609513683399
H        10.99088596731927    9.19482172965185   13.22406593858407

