67
CSD_code = RUKWOL | q = 1 | S = 0 | Stoichiometry = C30H28B2IrN6(1+) | MND = 8
Ir        5.55637980176433    0.74482982920129    5.73659780872382
N         7.06176632851897    2.50115381250967    8.83342877259202
N         6.62686296570869    0.16500950817977    7.48149180242338
N         4.76017027321280   -0.75205567168920    6.79817438773432
N         3.65269735768223    0.91207532372982    4.58712515232495
N         3.16558218600846    2.41038365621209    6.23608455236006
N         4.67447836348703    2.97598707831167    7.87493199236458
B         5.88915354530908    2.86391003354030    8.55845546279546
B         4.46556689515397    2.10808330905374    6.77578850408911
C         7.18239074662448    2.17711853825248    5.21684981753969
H         7.19259238872818    2.89460733418594    6.03290005428677
C         6.15904085148061    2.29850848973744    4.28742191987383
H         5.47968292283585    3.14291188051097    4.40781168919934
C         6.21377860903386    1.82322066372772    2.85308292704534
H         5.19355452513563    1.80925464210650    2.46284534074624
H         6.75501037082222    2.58079906161835    2.27612115978451
C         6.86792576092879    0.45031349093626    2.60286956347079
H         7.94214454896371    0.57409533483455    2.46581323775600
H         6.46984336171198    0.05336029343283    1.66693860840672
C         6.64857172249639   -0.56001815727442    3.69336365309568
H         5.88699296925620   -1.31113805322675    3.52664652398819
C         7.48519434122703   -0.72292701097477    4.72874869137550
H         7.37199677305916   -1.59753242199743    5.35847441913907
C         8.72356576911427    0.08784127960402    4.96913082846676
H         9.47885131785949   -0.22192638707893    4.23949752163009
H         9.11518905709842   -0.16054743828336    5.95376451838382
C         8.54888151443781    1.61756924908786    4.88281598185079
H         8.80172452765684    1.96387947810657    3.87859022897445
H         9.27042412284312    2.06500805331478    5.56694227099334
C         3.76807399116541   -1.64217425571903    6.81293618713505
H         2.99612972041529   -1.53041540188238    6.06243631266585
C         3.72208121368719   -2.64920021778629    7.74651930158341
H         2.90743121954935   -3.35270487170319    7.74524313443082
C         4.74136049964967   -2.73294426829160    8.70673520991934
H         4.70446083760302   -3.50954656846068    9.45488574166620
C         5.77705960869063   -1.83617475401023    8.69617466970346
H         6.57253489379748   -1.86860295982101    9.42193465558009
C         7.81435844650440    0.34803250175934    8.19081672208695
C         8.04370621750519    1.56847868129719    8.87033906205892
C         9.23576119970469    1.76867699952395    9.55683503112756
H         9.39209223502053    2.70697444816359   10.06554010987886
C         5.77632877459729   -0.83116053872682    7.70631763412953
C         3.30945435607090    0.16748561202552    3.53844799727804
H         4.08738288170273   -0.43691059816683    3.10104564858346
C         2.03859456476955    0.14335644295193    3.00314468657129
H         1.82071436185494   -0.47307481062156    2.14741952584154
C         1.05633333398142    0.91941673647896    3.60648326190906
H         0.04336824061401    0.91149910003955    3.23626189186349
C         1.39272659674071    1.69522754296081    4.69441673224335
H         0.64364588823770    2.27815715399781    5.19812759858795
C         2.70921196946116    1.69277098784255    5.16590409737906
C         3.29127355884220    4.76841568921228    8.93394183804532
H         4.01831139741898    4.99723357411682    9.69735611313615
C         3.53932177263685    3.77399428462701    8.00752070218105
C         2.60676615004541    3.44732915234860    7.00007284644970
C         1.42704172234723    4.16544095611793    6.90650622763196
H         0.70263650802042    3.99451703669312    6.12857292401267
C         1.18342733853624    5.16344941561356    7.83957251381395
H         0.26430082367289    5.72400142465628    7.77453036193302
C         2.09266816725611    5.45730168225599    8.84376477252440
H         1.86989244384654    6.23627644780831    9.55516584635268
C         8.78647663093661   -0.64832067839896    8.26532183734196
H         8.60660523567327   -1.59818283002952    7.78021758771702
C         9.96021942808712   -0.44216673530163    8.96760857321697
H        10.69613939515583   -1.22949792615567    9.01965611340695
C        10.19049093794948    0.77008490969907    9.59949858022696
H        11.11210352010239    0.93088143515320   10.13652055858761

