102
CSD_code = RUKYIF | q = 1 | S = 0 | Stoichiometry = C52H44ClIrNOP2(1+) | MND = 7
Ir        1.37770996283428    4.67965904846354    2.50442730822109
Cl        1.49828468534770    5.81737111071632    4.55798241590117
P        -0.30076218094347    6.38983115716648    2.28778549125948
P         0.37171650662840    2.77454766846544    3.62533570069319
N         4.49844415782447    5.94996562868921    3.50505831491123
C         1.09098413422342    3.82802322598873    0.87275610970360
C         3.46137061785143    3.89801922515477    2.68289506666300
C         3.77762796053819    5.29981569387781    2.60322914302129
C         2.92745380436377    5.95506842579954    1.63447455480746
C         4.65391689104942    7.36695694081451    3.48632147318688
C         5.13922224904326    7.99645090102172    2.34608809576621
C         5.30149853564050    9.36960508986538    2.33680124240939
C         4.99259309182904   10.11425061657174    3.46275171465429
C         4.52088213577351    9.48231613236384    4.60035496534929
C         4.34996106773471    8.10968607242792    4.61774883842843
C         5.21364212377745    5.26802036824190    4.54404751247105
C         4.61439484687092    4.97541425466047    5.76011529362637
C         5.34990278756074    4.33585692650502    6.74334769679166
C         6.67291173647086    3.99620616283276    6.51758411366711
C         7.26813761938298    4.29687411190131    5.30357859031983
C         6.54128195974834    4.93455056911664    4.31403537189661
C         0.44725655176446    8.05433787705045    2.27539419981951
C         0.85045317380702    8.66862776147221    1.09318972904064
C         1.48488662585383    9.89776509912497    1.12936654327622
C         1.72723957652671   10.52348238666711    2.34041144006459
C         1.31652825829953    9.92265487404246    3.51858600376526
C         0.68036769579129    8.69629000076886    3.49041511353459
C        -1.24305631326112    6.33122902040989    0.72130947246754
C        -2.63027601976296    6.41174332715298    0.67287008317308
C        -3.28741332462991    6.33586942252358   -0.54329680731360
C        -2.57228766271295    6.17544303772318   -1.71768203127721
C        -1.19061175198439    6.07686665082441   -1.67507991848637
C        -0.53176948314011    6.14435425343629   -0.46244049533480
C        -1.58835717349716    6.58042293523788    3.55464353683669
C        -2.32942391370422    7.76182319395290    3.59502135725748
C        -3.32160776062805    7.91755408354926    4.54406852161468
C        -3.57904874260013    6.90644538170929    5.45803192729387
C        -2.84345420486949    5.73418376713533    5.42010644616968
C        -1.85364054943427    5.57153941136813    4.46780287258205
C         0.23515013845027    2.81424971111098    5.43655335491672
C        -0.97001866798320    2.61137541221929    6.10113200083003
C        -1.01236904237971    2.67685547038907    7.48265342067252
C         0.13560523301011    2.95414354875062    8.20604296717741
C         1.33454689212802    3.16894164800338    7.54574984285309
C         1.38601381851285    3.10399599638955    6.16643487139481
C         1.33326795659606    1.25339679552269    3.30243255178445
C         1.23627922560449    0.70174860467157    2.02536443065652
C         1.94139184010501   -0.44070263135930    1.70183538544268
C         2.75532192748402   -1.04539906963972    2.64735471721278
C         2.85005000464210   -0.50637842620919    3.91831116342280
C         2.14392179164543    0.63842970699630    4.24864139325546
C        -1.26206665379045    2.22931719824016    3.03168733316577
C        -1.74671104262735    0.97611888017416    3.40300596734912
C        -2.97887556579226    0.55119739305369    2.94390808147183
C        -3.73141871862415    1.36483283130253    2.10981844534280
C        -3.24898105745166    2.60667521563022    1.73170982428889
C        -2.01703233675937    3.03691776482472    2.19109798140503
O         0.90450481170820    3.29851118087364   -0.12396154914181
H         3.85142247360575    3.36723287214535    3.54637795540860
H         3.61820874206372    3.33154101697565    1.76946807865646
H         2.88906708429301    7.03883002835927    1.69856408670663
H         3.07571572279945    5.62173052289678    0.61008779741250
H         5.39763633483423    7.41012137643584    1.47622778115380
H         5.67960908733625    9.85592512607331    1.45073563796959
H         5.12829033875950   11.18455715852185    3.45510029601876
H         4.28632278209259   10.05828173065433    5.48219893861083
H         3.97269290925116    7.61706424489642    5.49929531140720
H         3.58379889938238    5.24766420761461    5.92845170947664
H         4.88862064837539    4.10844354551876    7.69234178438456
H         7.24223050876579    3.50089735353986    7.28877977819498
H         8.30035703712773    4.03773119719438    5.12632528415397
H         6.99749936847276    5.17699174037359    3.36566109252973
H         0.65962280520339    8.19823363628754    0.14062375302899
H         1.78960901717111   10.36698708997767    0.20604679154351
H         2.22585839246579   11.47995460644486    2.36474784111009
H         1.48967580299344   10.41090880365471    4.46522092188033
H         0.36392722650660    8.23676038673887    4.41460229669350
H        -3.20172266276560    6.52862836169485    1.58200825783839
H        -4.36463227277179    6.40201150539849   -0.57091160702650
H        -3.08904909117559    6.11860218257851   -2.66309380575118
H        -0.62824851845291    5.94027404242604   -2.58629808103872
H         0.54544866688859    6.04493319034576   -0.42622085064001
H        -2.12359601259471    8.55304524697632    2.88654596868440
H        -3.89369492908556    8.83249875838360    4.57407428511369
H        -4.35028742563459    7.03712350578125    6.20149268608409
H        -3.03343673552321    4.94782860580789    6.13477604831675
H        -1.26567303329085    4.66422731186976    4.44282871341899
H        -1.87306161174576    2.40431086998876    5.54414319828801
H        -1.94823122205665    2.51377750530121    7.99585175106561
H         0.09455034741248    3.00952591660401    9.28302152451133
H         2.22871025344167    3.39392893656290    8.10726803398115
H         2.31438369471496    3.29328088896949    5.64686203741388
H         0.58688835269921    1.15954931276484    1.29257642740943
H         1.85349518428621   -0.86284613055329    0.71234871619247
H         3.30678038423417   -1.93785339953480    2.39512900412379
H         3.47266202794747   -0.98016882997674    4.66218764361167
H         2.21623803659930    1.03526481434949    5.25007972801890
H        -1.15335845898474    0.33992854891857    4.04560334815118
H        -3.35298359664178   -0.41879560259275    3.23398095084359
H        -4.69147579745124    1.02654431506411    1.75181288855638
H        -3.82627095045536    3.24066797345947    1.07585289415830
H        -1.63264004108564    4.00560647960153    1.89251391084046

