97
CSD_code = RULBEH | q = 1 | S = 0 | Stoichiometry = C42H48CuN4S2(1+) | MND = 2
C         2.07343836850522    4.01917021223187    9.90467202977538
C         0.07545223623578    4.27060171969432    8.98756087841910
H        -0.98734877900838    4.18165752709198    8.90439413798642
C         0.97992472704794    4.86459613953773    8.17825214950843
H         0.85490594797426    5.37743240404973    7.24729281792449
C         3.45530018232062    5.16263463495620    8.22649101106534
C         3.79989734490510    6.50317558655877    8.38572851877450
C         5.01026965637612    6.93394314451914    7.86383685147919
H         5.29121303473001    7.96998200486857    7.97969893630901
C         5.86668861297323    6.06349875439832    7.20449481317059
C         5.49656901079507    4.73033961280874    7.07463047979337
H         6.16008486407957    4.04530895944794    6.56789293339847
C         4.29563503014786    4.25790254602521    7.57904268106500
C         3.91551377357564    2.81445397959298    7.45572533167654
H         3.94737466953381    2.33849325244944    8.43666995360785
H         2.90705532580334    2.70677541744535    7.05761840630569
H         4.60553128989457    2.29405578391305    6.79816174203293
C         2.88993836271471    7.43962820237677    9.11962701533087
H         1.94750328569887    7.56567116730842    8.58718058805564
H         2.66642891121167    7.04969079759789   10.11247943102711
H         3.35505485295301    8.41483836999743    9.22763149904442
C         7.16259030647501    6.54217262534621    6.63165296070405
H         7.96791153400701    5.85188877995675    6.87231220511790
H         7.08886991012549    6.59959744119301    5.54626245168680
H         7.41735852430975    7.52831120721780    7.00861759554276
C         0.15683143870954    3.05526482712623   11.14757147072714
C        -0.01446745037922    3.71574469938993   12.37331756252340
C        -0.71793032854562    3.06213925979350   13.37475208867526
H        -0.85411200767077    3.55782931746708   14.32471014217747
C        -1.26510954308466    1.80179548010327   13.17808662571386
C        -1.09084363180733    1.17899597832257   11.94700905568211
H        -1.50823289079699    0.19592222089227   11.79115649926104
C        -0.38495471393481    1.78220910677862   10.91986413959594
C        -0.20327630192130    1.09563438876856    9.60033252543327
H        -0.92548866505134    1.46568270630521    8.87256412192208
H         0.79611440784784    1.26632007651955    9.20249208928442
H        -0.35603529925386    0.02586392644462    9.71117293398035
C         0.51305786274778    5.10379379498294   12.57277187360530
H         1.60138521569172    5.11811996315093   12.50521605882305
H         0.12155246143112    5.77537816907026   11.80859074562076
H         0.22402546944475    5.48441171896829   13.54789118549568
C        -2.00666895369235    1.10249409622007   14.26950857254289
H        -2.24547253404540    1.78312594903550   15.08159879266568
H        -2.92651525958428    0.66478898059215   13.88913124071722
H        -1.39069232006932    0.29406366113488   14.66384124685890
Cu        2.50068371757718    2.06221977993927   12.11400926174981
N         0.75884839893850    3.74904459800482   10.06143998533014
N         2.21555402159723    4.70264500082032    8.75098987250515
S         3.34904546772253    3.63074845323151   10.93532640088802
C         2.92792817139598    0.10525702001606   14.32333999746385
C         4.92591235856274   -0.14618755421607   15.24044991575438
H         5.98871190380240   -0.05723654804402   15.32362412853269
C         4.02143945111921   -0.74020895456191   16.04974006576658
H         4.14645740842519   -1.25306769972469   16.98068640312532
C         1.54606843064370   -1.03828016971706   16.00147364688588
C         1.20149381527983   -2.37881707861535   15.84217070880804
C        -0.00887175679117   -2.80962838591485   16.36403499300927
H        -0.28979216972930   -3.84566893908280   16.24813207081433
C        -0.86530283440723   -1.93923094697079   17.02341923276314
C        -0.49520592870952   -0.60607408075591   17.15334850115352
H        -1.15873611899215    0.07892306835286   17.66011254448181
C         0.70571667573576   -0.13359409599332   16.64895847649539
C         1.08581375017455    1.30985542816081   16.77233996511425
H         1.05395830491926    1.78585421807725   15.79140956344829
H         2.09426861328990    1.41753315776570   17.17046556096109
H         0.39577896955395    1.83021813924372   17.42991967948992
C         2.11147078568949   -3.31522061111992   15.10823002490585
H         3.05390660428074   -3.44128385296394   15.64067589883292
H         2.33498515321322   -2.92522710505787   14.11539881275529
H         1.64636682006046   -4.29043272929974   15.00016896219633
C        -2.16119422431295   -2.41795526376189   17.59624473917707
H        -2.96653648768218   -1.72769490831281   17.35557763207187
H        -2.08748763436523   -2.47538460361844   18.68164006428770
H        -2.41592549508906   -3.40410254850498   17.21926848301153
C         4.84453070111070    1.06920570444919   13.08046985349533
C         5.01583692250147    0.40874709076779   11.85471195993469
C         5.71928525698786    1.06237934293180   10.85328672082589
H         5.85557219490479    0.56665735332761    9.90335965032072
C         6.26649860272984    2.32270466469033   11.04999285900329
C         6.09224953549488    2.94547138010763   12.28109168214336
H         6.50954858751737    3.92858396455891   12.43692908854045
C         5.38631800076384    2.34225659585632   13.30820638674124
C         5.20459631561956    3.02882346724593   14.62773348755094
H         5.92676478437718    2.65873127928596   15.35551856253567
H         4.20518522951552    2.85816386414501   15.02553129625123
H         5.35739923243173    4.09859081627294   14.51691747293972
C         4.48834625392247   -0.97931301586285   11.65524178622344
H         3.40002089180676   -0.99364952307167   11.72281764387912
H         4.87987089776987   -1.65091046768948   12.41940116896125
H         4.77736469268960   -1.35990650239014   10.68010815131367
C         7.00806054629897    3.02201606734958    9.95858363348058
H         7.24705732771616    2.34144081249366    9.14658721927441
H         7.92776072154260    3.45987179789475   10.33892378954551
H         6.39209709585678    3.83029483224983    9.56411066609903
N         4.24251517134667    0.37540119284928   14.16658676673358
N         2.78581127609573   -0.57824895771922   15.47700298280164
S         1.65232564967502    0.49368686122921   13.29268518951367

