97
CSD_code = RULBAD | q = 1 | S = 0 | Stoichiometry = C42H48CuN4Se2(1+) | MND = 2
Se        4.12791361719587    3.80188360958557    1.23084419391666
Cu        4.98185467566615    2.09962684681290    0.00091115421710
N         6.85952634439481    3.93447776566830    2.13317746535998
C         5.55752785678328    4.22595293686538    2.31158221172269
N         5.44185414557739    4.90833129354801    3.46320374518054
C         3.40195252796889    4.51259305838894    4.72227348943232
C         7.62501376313318    3.88757457837711   -0.17724357970093
C         7.87727645531515    1.91571477291740    1.24237071161886
C         4.20972871291199    5.38566172708004    3.99311235907332
C         8.72404221434808    1.90272565037835   -1.03066099887657
C         8.51934497295500    1.27353439751135    0.19458945460025
H         8.87696983627235    0.26395304838592    0.33549219101065
C         6.68364599606908    5.05207271679775    4.01819550301372
H         6.83204106405543    5.56600703646896    4.94549695868772
C         3.81378185862046    3.08801046543768    4.93206795977587
H         3.80219251465084    2.55306989508972    3.98010261940203
H         4.82038356922331    3.02571444610684    5.34524471837723
H         3.12835825441808    2.58924045646926    5.61077193727349
C         9.39533097029866    1.16809700361901   -2.14419249722041
H        10.29066944074789    0.66353549923391   -1.78889386728351
H         8.71578891915517    0.40620885299532   -2.53075863675536
H         9.66101615022272    1.83953270525708   -2.95566164861795
C         7.43558602857881    3.22770952921009    1.04057512438334
C         8.26475225085394    3.20158003852510   -1.19972488193133
H         8.41529079350692    3.69933632959865   -2.14633416132151
C         7.56707892196270    4.44280887200611    3.19341096113684
H         8.62991532001641    4.33584060498062    3.26096233030290
C         2.63560683115240    7.15330171478807    4.27703963607415
H         2.33471522661440    8.17501990761364    4.10004894737293
C         3.84014030879582    6.70779919953296    3.75437624763684
C         2.20525963283582    4.99873720642909    5.22179599411298
H         1.56426380331524    4.33833373265177    5.78689332721726
C         7.66295212660874    1.22972040255782    2.55746216336089
H         7.80778377157275    0.15872199012836    2.44892392960985
H         8.36880948598798    1.59469027323997    3.30374695455030
H         6.65464129455262    1.40760689923462    2.93144025763306
C         4.71591477549164    7.60264307151413    2.93275419968222
H         5.69539342858867    7.72546102395756    3.39456320163055
H         4.86159167483296    7.17569375523845    1.93968553260102
H         4.26220557973252    8.58279205955119    2.82172705893806
C         7.16383466956110    5.30040949156465   -0.36000336996026
H         6.07396416275501    5.35638402877870   -0.32987337675423
H         7.55474412750061    5.94165873515667    0.42985345406149
H         7.49620190326536    5.68895977320006   -1.31801894813065
C         0.51643103688554    6.80675668086694    5.57920176309243
H         0.57824332093539    6.84881091720230    6.66614535378560
H         0.27874940763301    7.80024882778382    5.20984381784840
H        -0.29612618502831    6.13043618249071    5.32070948237498
C         1.80981429664433    6.31464971721310    5.01209806422723
Se        5.83551957230762    0.39881923726411   -1.23188477733043
N         3.10375186042881    0.26444581927722   -2.13323531049640
C         4.40580713869562   -0.02658737304654   -2.31194911031205
N         4.52139511321055   -0.70930365608958   -3.46338381015850
C         6.56113297758424   -0.31339264682332   -4.72269209319276
C         2.33906330379183    0.31169342778617    0.17748086164405
C         2.08552108867759    2.28312823090352   -1.24257825147107
C         5.75355976621676   -1.18647078206424   -3.99331964903246
C         1.23948988019297    2.29631978246357    1.03074247523685
C         1.44349642435616    2.92528233447580   -0.19474732337313
H         1.08554440030558    3.93473831351265   -0.33572991083122
C         3.27950777675097   -0.85363319791849   -4.01799935056717
H         3.13103069728251   -1.36788683791045   -4.94510822356885
C         6.14911153577463    1.11112501753120   -4.93266618704578
H         6.16073316801268    1.64630836693606   -3.98082577947445
H         5.14246104704892    1.17320770567545   -5.34576260888806
H         6.83439219076356    1.60983925316156   -5.61156379029989
C         0.56834087849849    3.03094891116279    2.14435515608181
H        -0.32713180698664    3.53536713885542    1.78919604476238
H         1.24785932958853    3.79294065581810    2.53075958000243
H         0.30290945429791    2.35952970116136    2.95591497522371
C         2.52781557108688    0.97131975096555   -1.04061447882856
C         1.69941293141402    0.99770496369079    1.20000091812952
H         1.54944812247095    0.50015386004722    2.14680487174585
C         2.39609789068005   -0.24438511925750   -3.19316713216652
H         1.33321102251575   -0.13778050700821   -3.26048109493934
C         7.32802862131418   -2.95385144738052   -4.27686376114194
H         7.62908478476714   -3.97549475459840   -4.09971256119399
C         6.12344385840158   -2.50845897312902   -3.75424075147438
C         7.75790878628610   -0.79941313090017   -5.22213429727351
H         8.39879296556219   -0.13897835298740   -5.78733173755114
C         2.29899433625660    2.96887477444998   -2.55794934110265
H         2.15373515130548    4.03983899986345   -2.44964503323894
H         1.59296360660334    2.60342793660559   -3.30384373685911
H         3.30722756019393    2.79133118383385   -2.93231301637276
C         5.24787846218354   -3.40325244942662   -2.93234234789481
H         4.26837991199864   -3.52637261183020   -3.39404014360264
H         5.10221696101237   -2.97605470913875   -1.93937010001704
H         5.70178275036060   -4.38328746053605   -2.82109752476193
C         2.80087588225058   -1.10089471085496    0.36045796297769
H         3.89076359551075   -1.15642853221528    0.33009383189458
H         2.41004901159489   -1.74246627605259   -0.42917930829227
H         2.46893041396458   -1.48935599754088    1.31865135716595
C         9.44707608562875   -2.60719331285423   -5.57920253532752
H         9.38524155692930   -2.64942910031884   -6.66613774218865
H         9.68490808888567   -3.60059115695010   -5.20969008177280
H        10.25953774424850   -1.93070937277380   -5.32083367535792
C         8.15362667463908   -2.11520262384190   -5.01214996521276

