87
CSD_code = RULBUV | q = 0 | S = 0 | Stoichiometry = C26H38B20HgN2 | MND = 3
Hg        9.77464216091540    4.04823848118717   -7.89439030274224
B        10.13340776599952    4.52806918173493   -4.38117765006720
B        10.11150033423222    6.17449770513006   -5.02986565562114
B         8.48601850128064    6.49707330309046   -5.63585186918935
B         7.49972213843356    5.05565953818868   -5.34823858490275
B         8.51226390325955    3.84456504279466   -4.56746001233375
B         9.02534631324490    4.47405432896121   -3.00792541181465
B        10.01267501459533    5.91399220129024   -3.29053701460721
B         8.98302132416873    7.13706036834343   -4.05961548877861
B         7.37248597367934    6.44361868548981   -4.27320568092502
B         7.38978320520968    4.81363782824194   -3.59455398633661
B         9.07759245958495    3.21423553412868  -11.27667945381449
B         9.94373071973201    4.74935354802821  -11.38560707608933
B        11.63207279647956    4.45898667115154  -10.93890560433631
B        11.80596310136374    2.75046377720479  -10.54979493163375
B        10.22724541546204    1.97828321054999  -10.74981719344363
B         9.77505601663543    2.10094566423907  -12.45283165086334
B         9.60372686060570    3.82178019091851  -12.85464683954353
B        11.17784827299225    4.59456751562573  -12.63367859805087
B        12.32812915059955    3.35044541919028  -12.13822326087363
B        11.46086700750114    1.81552138530182  -11.99887827777613
C         9.16801905809072    4.91919337421741   -5.74889092347364
C         8.34350833786570    6.05544032926629   -2.89056577973220
C         7.99668992023684    6.58540362227618   -1.54267571164208
C         8.72312113592809    6.20170281722016   -0.41457393064527
C         8.41738086752392    6.69288106678933    0.84100648192295
C         7.37525750435437    7.58762890177940    1.00922452329070
C         6.64781822622720    7.98545735327815   -0.09815584589271
C         6.95536809508940    7.49278912705322   -1.35326687976934
C        10.35085488701232    3.59482608302280  -10.17464197256035
C        11.04812295092814    2.96832635094114  -13.21805045721254
C        11.33791449492976    2.65115598652357  -14.64398419344501
C        11.51269015267800    3.65337309146346  -15.59747757040494
C        11.77063921041683    3.35120354176517  -16.92206162665470
C        11.85685039436473    2.03429835151379  -17.33715220116234
C        11.67251468815027    1.02510395445940  -16.40860529419519
C        11.41457133014129    1.32954137059144  -15.08488004058197
C         6.74278668263379    2.09782912822481   -7.78978108272427
C         5.79569863419994    1.24243124194801   -7.24939201027663
C         6.24047038643639    0.10418037889260   -6.59638187008027
C         7.60056646268596   -0.14100209012611   -6.53571502693624
C         8.47775998805209    0.77315702623784   -7.11940423035971
C         9.93472566019733    0.54276858609125   -7.09006807840156
C        10.45231934338531   -0.74809454340808   -7.19780854673987
C        11.82374123877032   -0.92522875744505   -7.15890478626946
C        12.63608158936043    0.18567093616034   -6.99811217574613
C        12.03139959918240    1.42971389447791   -6.91060554569086
N         8.04290445568051    1.87753019186561   -7.72056310794690
N        10.72347992514573    1.60674626874968   -6.96248093258683
H        11.08356627543697    3.84501585411916   -4.51411223524889
H        11.04999985919796    6.59480283172332   -5.60355962646959
H         8.33123854866784    7.13501228976470   -6.61327374024079
H         6.68133515392670    4.72735517202174   -6.13040706709690
H         8.37605127251628    2.70205849231894   -4.82416312994951
H         9.16169881609721    3.82438641943622   -2.03770506168027
H        10.81721968013299    6.25448039005970   -2.50387107760064
H         9.10703727968365    8.26921957280415   -3.76798179560856
H         6.41128614896112    7.11147549969028   -4.17907839112983
H         6.45825419710262    4.40966914314632   -3.00045676023321
H         7.96527170746355    3.18670310097699  -10.89033238719495
H         9.41240689893664    5.75357261401757  -11.07638579340087
H        12.23230426434616    5.26886038221526  -10.33049784627409
H        12.52348407155680    2.40584220260673   -9.67976349957252
H         9.88837554229727    1.11856210043517  -10.01796495618894
H         9.18027380498965    1.30160175575140  -13.07778768199470
H         8.90417033479251    4.14312398283080  -13.74348916931095
H        11.52715229327368    5.46819560869836  -13.33592772219402
H        13.42962992482044    3.36554289550969  -12.54939623180048
H        12.00941549050246    0.81719395385759  -12.28942570904820
H         9.54434645887497    5.51034942431573   -0.51627299927929
H         8.99990480541961    6.37515121185492    1.69402883013630
H         7.13614484058415    7.97262240916250    1.98951188438063
H         5.83422524777121    8.68794587660346    0.01350229763258
H         6.37377396464284    7.82676624935781   -2.19659956944214
H        11.44161771426501    4.68869131994552  -15.30725208460320
H        11.90267480028555    4.15241691080109  -17.63509162444879
H        12.05940980281159    1.79746126626327  -18.37118198775402
H        11.72722062834058   -0.00932308052324  -16.71684496114970
H        11.26495937540106    0.52225262321709  -14.38593281420650
H         6.44778116979423    2.99950366223533   -8.30776253662775
H         4.74434642151649    1.46637775581125   -7.33012704668303
H         5.54035004703109   -0.58256740961946   -6.14356457648035
H         7.97926365257652   -1.00981628692915   -6.02055702688515
H         9.79391566699016   -1.59087331058702   -7.33832823888212
H        12.25061701175776   -1.91295887440965   -7.25167326441890
H        13.70919185048063    0.09240468143547   -6.95261815131403
H        12.62093132111912    2.32754414446757   -6.78470288807465

