97
CSD_code = RULCAE | q = 1 | S = 0 | Stoichiometry = C42H48CuN4S2(1+) | MND = 2
C         5.58919605514244    4.27757789618246    2.26474889875091
C         6.58760844522449    3.46380334239904    4.06257582280986
H         6.66149072703043    2.97015730329182    5.00917777442709
C         7.53578796577990    4.03749441053117    3.28945489520111
H         8.59335333797750    4.12440394290507    3.42567724608626
C         7.57302767729168    5.20454389997123    1.10203676174612
C         8.11555309490918    6.47721057426087    1.32950560299607
C         8.87711910517057    7.05221791390212    0.32619239079293
H         9.29742559980516    8.03383045446807    0.48330315936985
C         9.10611875159642    6.40194884279340   -0.88134060770221
C         8.55652896016941    5.14277267822659   -1.07851047825927
H         8.73387540739942    4.62589930068181   -2.01020729196967
C         7.79820937871556    4.51677596182050   -0.09977497210875
C         7.26950269047238    3.12873553637055   -0.29606861969024
H         7.61319305262538    2.47196445644341    0.50310939178226
H         6.17900003380204    3.12415980638651   -0.28736198549628
H         7.60748564790945    2.72355953199333   -1.24521616192392
C         7.87874985261329    7.19311817066012    2.62449307655749
H         6.86615374623241    7.02498232910845    2.98826009469802
H         8.57517058143402    6.84576405940427    3.38775103076430
H         8.02930839620148    8.26096771896740    2.49396651023001
C         9.90881721279862    7.07054604324147   -1.94856519421785
H         9.32277092086191    7.87712873702895   -2.38974299880863
H        10.81394951471455    7.50635144263482   -1.53184284539823
H        10.17987083638499    6.37016873930744   -2.73348962878098
C         4.11727484844980    3.17247999931558    3.89166406451531
C         3.24817520183929    4.09184900643950    4.47707854999221
C         2.02013052986067    3.63301540289608    4.92644671910200
H         1.33409496047370    4.33021414027574    5.38427244704530
C         1.65147084457869    2.29922208701012    4.80176782486366
C         2.53823031230600    1.41328283959861    4.20548867551545
H         2.25933395942300    0.37604315838156    4.09514210092278
C         3.77611313825129    1.82990902267712    3.74040646075591
C         4.71956920456006    0.87673565685043    3.07335116238620
H         4.99165323407369    1.24410682134833    2.08409348674414
H         5.63475862727639    0.76253648695665    3.65371302013015
H         4.25902450648901   -0.10060537647085    2.96470342080538
C         3.62717095981525    5.53631256586546    4.59238457272431
H         4.61495200877779    5.64849575174255    5.03841159089608
H         3.64613155202785    5.99397997418670    3.60234321673421
H         2.90705813698054    6.07087364203318    5.20486273772931
C         0.32665744959215    1.83245578959668    5.31524316166911
H         0.37362375079330    1.70643937034510    6.39683368099631
H        -0.45034470333878    2.56228626012977    5.09958359645260
H         0.05026800671623    0.87855589134835    4.87472078780545
Cu        5.28771476410671    6.19532316035810    0.00005815166466
N         5.38419903425777    3.61845457631844    3.42313795517809
N         6.91158352901431    4.53891411503199    2.17094267427709
S         4.37046195976689    4.65238747636151    1.16251085011672
C         4.98620953244537    8.11296118110746   -2.26471123648724
C         3.98779526479968    8.92659055548660   -4.06260171712543
H         3.91391282116633    9.42013503332847   -5.00925681571054
C         3.03960601914421    8.35302930322548   -3.28939730788755
H         1.98203326570168    8.26615918823661   -3.42558892719184
C         3.00237583745412    7.18616499293427   -1.10187466447253
C         2.45976240362036    5.91351921211295   -1.32925524803105
C         1.69822845876986    5.33859687360659   -0.32586978820097
H         1.27785441486869    4.35700287538426   -0.48291569145500
C         1.46934968102127    5.98892436727834    0.88165548556078
C         2.01902551161191    7.24807521265915    1.07873792062171
H         1.84177272804855    7.76499769791072    2.01042539066951
C         2.77731166045845    7.87399282693900    0.09992373597387
C         3.30609280141380    9.26201738983761    0.29612613265101
H         2.96241500442754    9.91876010709929   -0.50308035868241
H         4.39659536449967    9.26654020727009    0.28739126118057
H         2.96815420032187    9.66726372495097    1.24525946376482
C         2.69643487709932    5.19753245699614   -2.62422300020936
H         3.70897841072980    5.36567694735098   -2.98813042548139
H         1.99990308938442    5.54480489117794   -3.38741678911704
H         2.54593075170948    4.12968655007538   -2.49360086926575
C         0.66666435291018    5.32041488237463    1.94894552567231
H         1.25253643095283    4.51357407570459    2.38987922020156
H        -0.23869275944229    4.88496503576596    1.53233688201794
H         0.39598478488189    6.02075802845000    2.73402861593763
C         6.45815542089877    9.21776252890062   -3.89180566032928
C         7.32717966959335    8.29823466682057   -4.47708367262917
C         8.55524773121123    8.75690654651225   -4.92655369839596
H         9.24122504591128    8.05958198038870   -5.38427495584397
C         8.92400342186055   10.09069461688486   -4.80210859372950
C         8.03731454768358   10.97679746883901   -4.20596653033126
H         8.31628382855868   12.01403718216883   -4.09580487130780
C         6.79941195427046   10.56033678534575   -3.74078897928796
C         5.85603443761124   11.51369345431171   -3.07388474523155
H         5.58392174239323   11.14650584620595   -2.08456697273151
H         4.94085357905753   11.62787312567157   -3.65426374825302
H         6.31665847425687   12.49101499041591   -2.96539770393189
C         6.94808517687302    6.85377755015358   -4.59214591970875
H         5.96027044022865    6.74158842812249   -5.03809685536556
H         6.92915573928759    6.39626158114132   -3.60203369160107
H         7.66812772687105    6.31907757919022   -5.20458556298154
C        10.24883852366151   10.55728338701903   -5.31568860385978
H        10.20182871945143   10.68321811388135   -6.39728699118358
H        11.02577753332321    9.82739204513560   -5.10000926998475
H        10.52534661581926   11.51119193506602   -4.87525911259272
N         5.19121257054226    8.77194860943145   -3.42317646306409
N         3.66381092727719    7.85169993211055   -2.17084500278547
S         6.20494845700943    7.73822711742254   -1.16245197067911

