55
CSD_code = RULMUG | q = -1 | S = 0 | Stoichiometry = C10H26B18Co(1-) | MND = 10
Co       11.19041685834372    2.58052276409112    4.24916664675733
C        11.73244354898544    4.02400120922684    5.55240170187210
C        12.89862646925479    3.59608023138585    4.60775779100402
B        11.05958744758680    2.71002868804493    6.31977338372727
B        12.13859983669738    3.81564851368077    7.20087573075178
B        13.33073663182751    4.40498674810273    6.06405607212795
B        13.13281496343055    1.94929616988553    4.63960473608951
B        11.97610345473789    1.33374986542519    5.78218007655328
B        12.34691748324477    2.07336486047309    7.36814042920648
B        13.77337196631852    3.12868852932866    7.18816427495499
B        14.25724610928228    3.03846720000268    5.48443887671595
B        13.67088022868502    1.58786429423239    6.29550002557446
C         9.48225875895903    1.54345237053669    3.91380854005567
C        10.64329767896087    1.10650849875699    2.97072095263433
B         9.23687063306266    3.19070575378028    3.84416097364831
B         8.11161914431011    2.07006677081824    3.03997424877184
B         9.04308271025556    0.69938498051429    2.47757258650846
B        11.29569188208702    2.41540942241456    2.17165063243653
B        10.36595211786890    3.80066384812746    2.66787318298212
B         8.66734916191496    3.50563387972698    2.18537524651922
B         8.58027898590038    1.94592195590977    1.33050524891475
B        10.22536161064800    1.27393441697708    1.32249383812982
B         9.99355051765395    3.00604636705823    1.10762267490744
C        10.90640810392737    5.28788200534796    2.64110480579623
C        12.04838032235411    5.65262031388876    1.91436772287747
C        12.53880268509589    6.94439291442796    1.90514544262735
C        11.90132606810100    7.93919484396266    2.62915180970479
C        10.76048581657507    7.61810151051797    3.34717296504464
C        10.27917591523178    6.32279432683864    3.34855393629365
H        11.17849793247085    4.91947306533023    5.29222482940992
H        13.09485270535351    4.21567811809001    3.73951822223357
H         9.93309509492877    2.73818651762100    6.68159131448376
H        11.67440894880673    4.56223833468898    7.99329091364515
H        13.67249045496739    5.53247121450373    5.97556423841228
H        13.60314056356819    1.39186363808051    3.70769844652266
H        11.54977189908151    0.22114772232907    5.76009768146184
H        12.09980374015149    1.50664410312069    8.38068126807115
H        14.55017201804024    3.31214551266900    8.06413789566546
H        15.33411677050085    3.22051038809679    5.02846264660269
H        14.38382193591516    0.66921020990738    6.53048806499671
H         9.29823712543560    0.94727099406889    4.80125858531573
H        11.21474714740561    0.22587660212375    3.24423077305498
H         8.76640737908472    3.75202673559618    4.77341654408638
H         7.04179918564081    1.88423547540463    3.51040691055955
H         8.70958952862780   -0.42905812933048    2.59027338157000
H        12.41971324903268    2.37611218768848    1.80458161474830
H         7.94099812055321    4.40661659499319    1.93159727997590
H         7.79774241456175    1.72857248661609    0.46825542869199
H        10.68914957645901    0.51054568203720    0.54631103657081
H        10.22090930191802    3.54772481935892    0.07872041679406
H        12.55704386627356    4.89398612140644    1.33554931001566
H        13.42687136372545    7.18366981663228    1.33184268999331
H        12.28549104214717    8.95146324256436    2.63043213070297
H        10.24746277716567    8.38789141442898    3.91188964718486
H         9.38252874688203    6.09628387847412    3.90896417601655

