86
CSD_code = RULTUP | q = 0 | S = 0 | Stoichiometry = C33H41F7N2NiO2 | MND = 4
Ni        5.72533634194181   14.84634122810959   14.80575534642471
F         4.94605599760302   12.41008553226686   15.15529763703362
F         5.49886565072560   15.35469768510999   17.55057573701428
F         5.75289293068513   12.76485411107869   17.69977222246882
F         8.41006037719701   13.09589343822310   15.40717745293334
F         7.35095252831541   11.31043801329982   16.03442660645680
F         7.75738799884878   13.50249748230910   18.00459084156708
F         7.43744727018755   15.60170482900458   16.60505348241506
O         5.59963935558221   14.43545917723212   12.78572125813381
O         6.43832254976978   12.50420117657607   13.49892490039124
N         5.33340058065187   17.83169418045092   15.35354577863744
N         3.69321165687072   16.70533426275777   14.50440859578725
C         4.95965658906752   16.63003443618820   14.91844507791632
C         4.30496835283007   18.85122979010536   15.12395083725426
H         4.63925161581377   19.52559469014379   14.32590843443908
H         4.13247972930509   19.44117943505189   16.02294067369405
C         3.09136826220909   18.01626914907860   14.71974511492053
H         2.35081935569799   17.95672958850807   15.52457670283255
H         2.59505007416435   18.37954570101608   13.81842274166966
C         6.64085151502107   18.25449691864796   15.71966480278645
C         7.65720381983317   18.25697289116691   14.75843948735826
C         8.90850801843163   18.73542388290074   15.12235940895351
H         9.71197940394841   18.72947420413190   14.40305020624236
C         9.14278687228003   19.21980072061381   16.39328259524293
H        10.11950934486114   19.59802560497015   16.65575356948306
C         8.13281994923482   19.20195411524169   17.33363030484994
H         8.33084154475330   19.56444812941857   18.32984354349623
C         6.87361471249007   18.70839259549873   17.02187702247108
C         7.44780043503146   17.70465625216533   13.36854778543565
H         6.37729953558124   17.57684142820778   13.18072931167778
C         8.09587300606129   16.31875910743120   13.29655173675845
H         7.61278140255030   15.64322873138955   14.02833530691023
H         9.15229166983315   16.37144508032418   13.54646249071619
H         7.98738187861880   15.90031798107787   12.29806658340445
C         8.00257734869838   18.62620039723384   12.28068758554669
H         7.62771053589963   19.63970955129697   12.40823597845692
H         7.69567958054271   18.26483417937355   11.30152119180719
H         9.08815770233798   18.65651717220253   12.30091611942907
C         5.81425639060183   18.64797617897371   18.09773565281276
H         4.95571377382217   18.08845173172405   17.71710762377614
C         6.33048602034670   17.89488335229211   19.32629145215019
H         6.74519378119348   16.93627275399714   19.03249165603233
H         5.51243699333675   17.71821368708390   20.02057845807517
H         7.10106456685134   18.46031511196788   19.84318791173252
C         5.36603043670308   20.05743119282919   18.49889489624496
H         5.03149244415013   20.63291577256086   17.63705905625277
H         6.18896450934990   20.59871652841199   18.95919977775675
H         4.55058996409736   20.00153354916775   19.21672058616796
C         3.01289509411494   15.58589123050438   13.94169217747787
C         2.90792623554872   15.49257951218953   12.54802270982760
C         2.33245782910508   14.34966632065338   12.01103846021052
H         2.23964236396178   14.24989705061992   10.94021023952050
C         1.88309802948121   13.33110959658610   12.83005593798659
H         1.46095651837526   12.43727879885925   12.39384984726071
C         1.94100165089104   13.46294251608330   14.20391074281596
H         1.55515921479776   12.67565937111882   14.83012124017826
C         2.49396132276341   14.59562104997236   14.78917815841759
C         3.33354584952708   16.62901897622817   11.64480859926062
H         3.89956673002269   17.35547377101215   12.23348463080998
C         4.24769894058410   16.18093998922426   10.50514028083450
H         5.14042209869604   15.72091662018632   10.91676394765669
H         4.54009706247369   17.04357385902294    9.90940859763789
H         3.75095150730107   15.46990392397887    9.85067901625832
C         2.08229151155626   17.31442881602542   11.08365562627885
H         1.41086106017863   17.62114916872467   11.88378790618182
H         1.53800401029241   16.63387638673294   10.43353083666800
H         2.35914081096540   18.19367878730690   10.50556862106763
C         2.38947111137225   14.82654080189897   16.28019558580242
H         3.17799480961639   15.51827308543433   16.59054958022606
C         2.53271225815428   13.55928282255054   17.11990502362150
H         3.40908688399684   12.99525181428583   16.82389430782998
H         1.65653520569375   12.92182235987890   17.02938988223197
H         2.64637256127414   13.83100930730114   18.16610193763355
C         1.02271709571399   15.46779359506058   16.56145014177108
H         0.86806592350226   16.36553597100685   15.96596553045660
H         0.94357634318606   15.72814761139088   17.61421789422308
H         0.22702983848401   14.76629331260367   16.31874580886904
C         5.99985485461758   13.30720747737504   12.54736368201200
C         6.04073426911392   12.70946534648906   11.17884185337090
H         6.06313905847697   13.49048844220099   10.42482539954227
H         5.13979611791272   12.11225247143163   11.04272371933271
H         6.90231509489317   12.05399978032824   11.08893022362684
C         6.14715698513321   13.03367877016687   14.79788293734767
C         7.19856234727994   12.63752995788434   15.82432741211389
C         6.30311218326189   14.80834575562567   16.58273090195047
C         6.76782484374869   13.41358286323521   17.08698905766395

