80
CSD_code = RULTID | q = 0 | S = 0 | Stoichiometry = C31H38F8N2Ni | MND = 3
Ni        8.97398978255427    7.79267211306507   18.42442040280095
N         9.76695103951721    8.66113739909783   15.89199371504496
N         9.79317757860247    6.49734891792775   15.83718598397776
F         8.76120942742807    9.67961848528627   19.98053203416287
F         7.20997920116848    8.24266491729406   20.51672168293508
F         9.42527453372741    8.57037889009422   22.39521634751576
F         9.01480206704120    6.57238421696218   21.66073490046050
F        11.37293101304569    8.94101431263894   20.55583093497857
F        11.68589010656937    6.94764194349854   21.33464934488154
F        10.39467720261837    5.80110529472682   19.30263657970954
F        11.74302856506484    7.29535347376553   18.49617586919481
C         9.60769560726307    7.55615185402066   16.61823484468640
C        10.06381912136009    8.39116485404693   14.48787521607618
H        11.05566323137402    8.76800008843815   14.22591019176672
H         9.32837082745350    8.88427933481564   13.84545057216695
C         9.98271701317553    6.86387001085305   14.43135286272417
H         9.12553874172873    6.50729335202169   13.84887877443891
H        10.88494704622928    6.40594006912909   14.02651107813913
C         9.71380046008316    9.98347508874189   16.42885276203656
C         8.46330861672197   10.59431206317463   16.58740877852980
C         8.41339539665407   11.87252419939704   17.12311714377775
H         7.46201442800990   12.35434966188086   17.27931882937285
C         9.57553979462627   12.53728824750207   17.46380085059330
H         9.52222910817254   13.53147678142629   17.88070674532969
C        10.80249986531064   11.93331486514191   17.27758071904793
H        11.70051255121879   12.46505140648394   17.54717776416150
C        10.89885583060882   10.64640554092359   16.76414880034795
C         7.19643782324988    9.84559478024559   16.23616414733793
H         7.43270341669145    9.08712866073723   15.48090213247826
C         6.10164006492201   10.74369777157191   15.65986580042057
H         6.49585671074979   11.35892930837936   14.85427395539387
H         5.68208252649426   11.39465641007322   16.42148882354437
H         5.29454413738068   10.13105590541824   15.26359453394726
C         6.69375884157209    9.13505731418174   17.49308619146211
H         7.48968314181573    8.45062829483938   17.88188230445945
H         5.80811802285866    8.53891912352358   17.28286257758019
H         6.45879738448973    9.85695505531910   18.27218801445650
C        12.25533842843491   10.01511753717611   16.55915884395851
H        12.12453614506108    8.94494615863004   16.37739419924974
C        12.94535225276246   10.65326318149187   15.34775846372264
H        12.32598317048451   10.59159844499141   14.45417056268476
H        13.89171756752805   10.15476991976048   15.15075811207896
H        13.14549606642469   11.70448006677527   15.54110544086892
C        13.14143156122253   10.15547127535871   17.79754866319854
H        14.02205084067503    9.52725872265213   17.68989243370893
H        12.60352665230827    9.84220391391351   18.68577838905501
H        13.47135288943776   11.18145729566162   17.93593270537090
C         9.77462493354444    5.12581052268503   16.21924127846660
C        10.97728742041005    4.41133904419987   16.24429197427340
C        10.93068397559549    3.05501100896515   16.53605945303705
H        11.84482067709543    2.48333129335452   16.55226153268658
C         9.73505065679593    2.42842335495986   16.82323094056169
H         9.71907868191114    1.37401084192664   17.05428477557380
C         8.56209552652886    3.15583290941633   16.83782036480769
H         7.63778898299472    2.66355178840447   17.09402995095388
C         8.55866785696523    4.50886971895647   16.52839735570616
C        12.31528670889183    5.06927398559538   15.99821356105478
H        12.17585937563892    6.15219261924569   15.94282332827052
C        13.27216240468444    4.80281763936006   17.16296659085362
H        14.16532909225274    5.41298075507220   17.05199687494394
H        13.57362383810736    3.75958393669825   17.19770819612397
H        12.79823227871858    5.05570994097104   18.10579190287281
C        12.93345004547152    4.57100872523448   14.68760043449503
H        12.25708997769476    4.70977246966970   13.84531708423563
H        13.16211741310868    3.51047042547146   14.75696255983643
H        13.85768120053944    5.10643132499662   14.48200290376758
C         7.27039356688086    5.29356311446325   16.60986372680057
H         7.39996625200509    6.25238586489913   16.09633693937311
C         6.98046758688101    5.56850470797604   18.09011511979061
H         7.82470911183826    6.13230049666821   18.55112282601155
H         6.89429649307262    4.63426732976146   18.63921285549030
H         6.05636864672075    6.12876076831991   18.21256480404467
C         6.09178671515050    4.57382309285422   15.95277615636907
H         6.34816861681756    4.25916627706397   14.94351228682439
H         5.23496568477637    5.24199872860468   15.89911128932098
H         5.79505801823381    3.69806792565049   16.52218228057491
C         8.53092575590548    8.31641904485224   20.14650081633788
C         9.42778530553409    7.80690379603626   21.27985787095368
C        10.82010046878033    7.70578285351371   20.62770150256653
C        10.57285092855633    7.16882717110167   19.20051043918164

