62
CSD_code = RULZON | q = 1 | S = 0 | Stoichiometry = C20H38ClP2Ru(1+) | MND = 9
Ru        4.66055463554450    2.14198225757553    3.38646754980969
Cl        5.45958220239506    2.92343797684371    5.45204046670132
P         4.23725065115291    4.43581600315764    3.24064864716064
P         2.53645515590107    2.07991977346577    4.35515389289215
C         5.05778020698755    1.43173927997759    1.21315592478690
C         6.29046897237868    1.92284721299532    1.70654638248965
C         6.82605132664483    1.41053320788317    2.89059837285503
C         6.15936883124943    0.36884782260309    3.58110573944281
C         4.96689040244229   -0.15223874529673    3.07743577663425
C         4.40126850417259    0.39693747435724    1.89902888532786
C         3.37947016020961    4.92436571165828    1.65450190467595
C         2.58398088365627    6.22182278420766    1.76846516543997
C         4.38622620350227    5.01652693379517    0.50990793807931
C         5.56594094121824    5.72443141675261    3.46936217497285
C         5.62479250939878    6.30564283515368    4.87828192782044
C         6.92055136551839    5.14171001625447    3.07573586891349
C         2.98968850583011    4.80938705184932    4.54473209105003
C         1.85360349896931    3.79952855535932    4.45567825531854
C         2.51717385233585    1.56742565276876    6.14573984322863
C         3.38956876993039    0.33814916276150    6.38598859171649
C         1.11834078434853    1.38393268841862    6.72734232668500
C         1.11925870002683    1.21143840904778    3.51062483017511
C         1.00037093042949    1.69230058948552    2.06409278606039
C         1.22212876156427   -0.30937106579506    3.57067945711346
H         4.68219882385998    1.76488401911581    0.25200170566830
H         6.86015023616272    2.63723018066084    1.12422454223830
H         7.79304594875137    1.75150918156398    3.24234786625829
H         6.62126299128081   -0.07175803065664    4.45786232174207
H         4.51039832043380   -1.01570149084245    3.54709925670949
H         3.53293623359801   -0.07139582816647    1.44957876726876
H         2.69076585820856    4.09628569542483    1.44259854503773
H         3.19554796545685    7.03030297085573    2.16333980130746
H         2.24317474490265    6.51828173505197    0.77834148054834
H         1.70605485363417    6.10783303634415    2.39815060434989
H         5.02813130881654    4.13945310499689    0.48201208566183
H         3.86200696970175    5.08455509288477   -0.44108690239073
H         5.01090378227639    5.90087944001767    0.60815241442505
H         5.30608782399291    6.52859866919252    2.76976287775488
H         5.81285389971633    5.52824769139478    5.61324085807367
H         6.44537352150108    7.01867985233071    4.92641112348783
H         4.71113145354865    6.83323604753135    5.13711392467644
H         7.16725802344389    4.30845261762308    3.73165975878966
H         6.92041074473376    4.80393123429908    2.04168823072230
H         7.69570950210468    5.89713291676020    3.18311846927167
H         3.50516480790386    4.71158501727135    5.50371388810555
H         2.62616171760839    5.83386186123555    4.44079585630734
H         1.25618181029693    3.98239544309011    3.56070649447051
H         1.20012903019121    3.87954772767698    5.32851522630168
H         3.00080038910546    2.42047116944584    6.64300405592367
H         2.98176845637542   -0.54877396144334    5.90798864299983
H         4.39692354743426    0.51436568368401    6.01213040232418
H         3.45947728788336    0.14363893449179    7.45374505152406
H         0.46924021729048    2.23047615666361    6.51544820944014
H         0.64206799011759    0.48166460921068    6.35421910303898
H         1.19845124785268    1.29158828676759    7.80841314543848
H         0.22781853391335    1.52351760675827    4.06840600484769
H         0.56260087047750    2.68465448559114    2.00321483357436
H         1.97786978357431    1.71650531749606    1.58236287688658
H         0.35814093733410    1.01934276153760    1.50126264417157
H         0.35187536916206   -0.75111778099603    3.08810761379590
H         2.10874285618955   -0.66920485357532    3.05711012229772
H         1.24811538536232   -0.66856960656428    4.59512329760057

