24
CSD_code = RUMBOQ | q = 0 | S = 0 | Stoichiometry = C10H9MnO3S | MND = 8
Mn        3.43242369606785    1.86659084971695    2.38379711734777
S         1.16420425804541    0.87675903953589    1.72308101999471
O         0.41087949703242    4.47554598209868    1.99609164479788
O         4.40527826510043    2.12937552242163   -0.36024470252483
O         4.81561649728319   -0.69650017204576    2.68587096837455
C         2.15738874196204    3.35112506010348    3.15976392723858
C         3.32885589292151    4.02638503711264    2.75267312324788
C         4.41451277078639    3.49893975051604    3.48801768914696
C         3.89395381423596    2.55054706804189    4.41454653760885
C         2.51967565275472    2.42372324596077    4.19276268045993
C         0.85067820508180    3.48088428440416    2.53083776105266
C         0.09189259164736    2.15387818666202    2.48846651304927
C         0.96165466268249    1.34671115807926   -0.02149626586837
C         4.03433360904919    2.00481790778216    0.72670561889636
C         4.27292832005109    0.31121316855883    2.54176670754114
H         3.36447995804352    4.84159842801858    2.04488246641471
H         5.42422190973582    3.88944177701357    3.48850814382488
H         4.45460078886570    2.08412758088072    5.21165209063468
H         1.83124347619550    1.89099473938517    4.83471774360906
H        -0.82110489658160    2.23315616820397    1.89872286047424
H        -0.14622221426315    1.79445378670328    3.48984418161707
H         1.68080055289217    0.76136304125589   -0.58674840730362
H         1.15786843969348    2.40696091255932   -0.14955196661844
H        -0.05216448928217    1.10130747703173   -0.32756745301614

