55
CSD_code = RUMCUY | q = 0 | S = 0 | Stoichiometry = C20H21Cl4F3N2O3PtS | MND = 6
C         0.35906467969290    8.48050754471685    3.52590958927124
C         2.88055169404886    8.51629769641595    4.93179211372418
C        -2.18825607127862    3.91540105873065    4.93137286130944
C         2.29359627951228    5.86480647476455    2.22896839422296
C         3.57699944582243    6.10865190225610    1.73217395518229
C         3.79443347586973    6.34433972306752    0.38716845565027
C         2.71698499829213    6.34166751123693   -0.48296169132428
C         1.43736898665380    6.09654282033657   -0.01708827828536
C         1.21785067510246    5.85053404138337    1.33070417977632
C         1.99343095338332    4.59345000847321    4.19171039909006
C         1.92183606349588    3.28970870613127    3.47247783009606
F        -3.47955490200374    3.60411143990698    4.93138397498698
F        -1.62310617733128    3.33612564973733    6.00306994416474
N         2.12586211074282    5.72174346577429    3.60576250357593
O        -0.38039514288558    5.68416320932825    4.93166218720587
O        -2.41643470021373    6.22749561618645    6.15373001261256
S        -1.84434300986446    5.75541210758221    4.93165974927903
Cl        4.90647387363747    6.07667478444507    2.83936947965184
Cl       -0.38430154460770    5.56246758219595    1.95571199417652
Pt        1.25122950452971    7.28552599273031    4.93106161641143
H         0.33276928351041    9.54412779986619    3.75287623683611
H        -0.66525346668232    8.11596947379396    3.43175419329784
H         0.88644647586857    8.33528878495036    2.57986620908254
H         3.47662964798795    8.29945889048447    4.04377477202351
H         2.63802838361524    9.57768060220035    4.93151281959339
H         4.79605275739896    6.52537305343907    0.03263116711663
H         2.87933689290104    6.52928282518874   -1.53229484359565
H         0.59759923751735    6.08768146105357   -0.69122932171132
H         2.00650294629705    3.43984922437434    2.39873776812582
H         0.96259232757714    2.81735240656888    3.67976525948084
H         2.71029469569759    2.61633781759253    3.80318668529728
C         0.35976469063920    8.48019157285674    6.33731667096313
C         2.29362717182154    5.86494506960496    7.63417858963243
C         3.57695411369722    6.10915437708661    8.13101637739680
C         3.79430244756056    6.34474487037606    9.47606010271225
C         2.71683353378909    6.34173386991042   10.34617475635067
C         1.43729348852435    6.09628646380729    9.88025262633601
C         1.21789052416458    5.85024775281831    8.53244687151187
C         1.99330234836160    4.59354200350495    5.67153120018727
C         1.92159018285898    3.28986911564817    6.39086183055452
F        -1.62318233997013    3.33638055771007    3.85951342304436
N         2.12581620367480    5.72189157220358    6.25738857393417
O        -2.41643055834264    6.22785346588401    3.70972684986328
Cl        4.90651783521466    6.07743509377407    7.02393223111024
Cl       -0.38420147341491    5.56204377328504    7.90737108300365
H         0.33318944588254    9.54382791333586    6.11047210421851
H        -0.66458106978751    8.11568172320854    6.43125778532553
H         0.88665025504724    8.33521055858602    7.28368476292579
H         3.47689062107712    8.29985527516538    5.81974258441620
H         4.79587120187589    6.52596293800836    9.83065647158404
H         2.87909389866269    6.52932293953182   11.39553378022458
H         0.59749555479278    6.08723059910773   10.55436112271374
H         2.00918285929577    3.43992168551163    7.46443233440893
H         0.96082214055065    2.81930996078441    6.18590412088930
H         2.70801654972716    2.61502717336263    6.05796353035974

