62
CSD_code = RUMDOS | q = 1 | S = 0 | Stoichiometry = C30H24N5O2Ru(1+) | MND = 6
Ru        6.05203836808633    4.39757975912013    2.84051167708147
N         6.11288344295029    3.10215297878563    1.30918555524762
N         7.90162953548718    4.69028450871591    2.24424967859713
N         6.07091057107433    5.74288505070453    4.30627826674748
N         6.36402131768205    3.21793289684669    4.39078269960223
N         4.00827415102894    4.35704387032509    2.97941015131115
C         5.20652575664864    2.21117049969763    0.91913511381855
C         5.25593114401263    1.58076264101517   -0.31083474371151
C         6.29180243661333    1.88709327293149   -1.18829133613582
C         7.25313839953252    2.79269384469921   -0.78731491283604
C         7.14424900274058    3.38485986757289    0.47337137907790
C         8.10218440417732    4.30280864615425    1.02461414381780
C         8.74352731255018    5.61466899411169    2.86551939409842
C         9.14702182119500    5.38280415674363    4.18194454359708
C         9.92396763700808    6.31737341588994    4.83793072693646
C        10.29205293365741    7.49104948649529    4.19733751764088
C         9.89184557459140    7.72354447849538    2.89144418378392
C         9.12764994192647    6.78861196921278    2.21792660169954
C         6.01841328032040    7.06289902210134    4.16281203292726
C         6.01676767854973    7.92575966717395    5.24287072730408
C         6.06573793906782    7.40020606341725    6.53222298933174
C         6.12632790425778    6.03166548022351    6.69279212377746
C         6.13710250240299    5.21690133515123    5.55588835341181
C         6.27837773476564    3.79298978349498    5.55919619818681
C         6.54992355090921    1.83207334920931    4.30311671844724
C         7.50282420954477    1.33742238545166    3.41113235614465
C         7.69233124557663   -0.02495839515919    3.28646069630086
C         6.93039335520130   -0.90772273957180    4.03678458304187
C         5.98723825717499   -0.42164543128085    4.92713953961831
C         5.80033469167741    0.94092024006667    5.07106437985705
C         3.22846869298427    3.70198218590807    3.84135879054177
C         1.84696744542025    3.76331772498351    3.79760486092606
C         1.23284364727522    4.53346710960395    2.81945490271232
C         2.03852849426473    5.21423506785081    1.92359409705797
C         3.41644669256616    5.10277338280395    2.03556282883599
C         4.34132118290474    5.86745836274608    1.07384282227558
O         5.57995439367321    5.75424613956806    1.34589963650969
O         3.85398340670196    6.51194819035536    0.17047095882339
H         4.40858114847198    1.99272274265487    1.61932149205159
H         4.49098586722710    0.87208893694224   -0.58257162848124
H         6.34254452320967    1.42350357412937   -2.16044563925816
H         8.07647454797410    3.05918364705062   -1.43057076382531
H         8.97457001876720    4.60812266907699    0.45447895444231
H         8.87040286657753    4.45438500522040    4.66500152009467
H        10.24472556182873    6.13072194300423    5.85120471951242
H        10.89113622628031    8.22259506793625    4.71635979967060
H        10.17557773616632    8.63758508604852    2.39345386782708
H         8.78359167160261    6.97756635302830    1.21200742455737
H         5.97496965841566    7.43224297216638    3.14505810072216
H         5.97381265406416    8.98996967256402    5.08050379553485
H         6.05911061840030    8.05399636400313    7.38975336590807
H         6.16906545612086    5.58097043075261    7.67146716103887
H         6.38004031602876    3.23643981466797    6.48533638126306
H         8.11307699320415    2.03428023240212    2.85093035564223
H         8.44018815767165   -0.40034309988175    2.60530178902835
H         7.07682950226696   -1.97107389261110    3.93280873204406
H         5.39592509933184   -1.10532263026839    5.51620912067132
H         5.05590555527987    1.31494182772972    5.75940514253973
H         3.72712292169588    3.10214725681021    4.59316703777343
H         1.26519158112962    3.21472255553425    4.52087141118024
H         0.15783156533326    4.59888102104433    2.76105706219538
H         1.64479969675251    5.83491318838457    1.13342056146657

