53
CSD_code = RUMDEJ | q = 1 | S = 0 | Stoichiometry = C18H20F3N6O4SZn(1+) | MND = 7
C         2.96532386306329    2.70542358778980   10.64878026886519
C         1.63424684439051    2.34743546879644   10.81321192010349
H         1.31985822717369    1.32492176878775   10.68437048630981
C         0.72432546600597    3.34500395453443   11.14059771523438
H        -0.32150133415682    3.11134346984523   11.26549330139425
C         1.16771915068625    4.64104523880256   11.29666881834782
H         0.46638472132354    5.42295008135681   11.53041630286867
C         2.52648113134618    4.92043951493892   11.08357173636215
C         2.22803800425093    7.33349386554470   11.52933213138256
H         2.88489624236181    8.12753400315676   11.88302246603342
H         1.57508135495435    7.05297971030099   12.35175021594637
H         1.63276795233529    7.70307679926850   10.69106426401533
C         4.65488261623406    7.42806088571846   10.04795539175055
H         4.20617569778326    8.41066701575610   10.15578503207331
C         5.79874048676854    7.28067635278160    9.17856348431019
C         6.24723301503806    8.31882633420133    8.35665305546000
H         5.78962905377104    9.29326184589572    8.42230559982172
C         7.24617090911558    8.05987857717154    7.43819556911656
H         7.58777764881787    8.83160416481388    6.76587491864650
C         7.79704099854319    6.78811550996924    7.38886195960269
H         8.57495838354193    6.54444589577116    6.68310392322165
C         7.31550719926947    5.82074809110129    8.26583923277603
C         7.86741232015965    4.48109214956560    8.31859176422024
H         8.64958894061756    4.23685774179478    7.59479136906767
C         8.09557140754014    2.36813932934079    9.23539102263980
H         8.53852770788856    2.23782654611927   10.22845301613427
H         8.89579906101745    2.29703812774253    8.48545171185132
C         7.07686379881390    1.25819746791560    8.98816844866122
H         7.61518716137551    0.33898446350446    8.75615384430285
H         6.45286203707243    1.52790559535975    8.13550913028372
C         6.18683199374118    1.00328531814587   10.20101332839602
H         5.69357060350396    0.02779340029845   10.08725342524238
H         6.80894890698071    0.97074242630253   11.10234498437229
C         3.99476513725576    1.71961497524873   10.38421392156103
H         3.66298014467090    0.68747980937092   10.24390631314068
C         3.01092331523789    3.76642204512420    6.32516670718147
F         2.30077889777578    2.94037373982853    7.10483424865694
F         3.78134842426165    3.01805129532802    5.54014529200712
F         2.16232483027003    4.44584598922954    5.56508570469390
N         3.39228410860549    3.96205485782690   10.77149527310315
N         3.03949311614031    6.19780293350719   11.14455365713254
N         4.17907206950404    6.33578233179650   10.50070908917590
N         6.33651785455726    6.06526296274213    9.13053617273070
N         7.47573199040648    3.66189526148123    9.19977203460043
N         5.21689108420811    2.04666686921654   10.38139506712828
O         4.80292167193278    3.76116258355840    8.13681136497907
O         4.85020228082318    5.69841622980258    6.66373522401325
O         3.08964275764801    5.45620405823690    8.33889089789174
O         6.26311895153137    4.54946598196650   11.92812521291191
S         4.04427939798636    4.83160337665032    7.46407042720724
Zn        5.29287753141936    4.36917798716578    9.89510436368354
H         6.28357092152763    3.69106298706494   12.36133453894841
H         7.17237394290962    4.85545902245829   11.85987465043795

