36
CSD_code = RUMHIQ | q = 1 | S = 0 | Stoichiometry = C8H20ClCoN3O3(1+) | MND = 6
Co        4.39054740531382    0.62141277151403    8.17319722006848
Cl        4.18183975803584   -1.03432321811754    9.52928842265855
O         4.61038973206680    1.95555285054918    6.88177100036120
O         3.60786937137552    3.70947774199213    5.97743338906203
O         6.06607586762210   -0.37047654217621    7.34187245322419
N         2.91373833945438    1.72758439371127    8.91929206257149
N         5.74609621690149    1.49327412658392    9.29972442282962
N         3.32274135952090   -0.34712894124685    6.78293755446881
C         3.75709804727028    2.91753392204301    6.86941897460517
C         2.91379282673951    3.00662509267384    8.17188691406970
C         3.02940878117900    1.98375226430414   10.38168738901441
C         4.30685995364208    2.64628602546362   10.88737262796826
C         5.51374296629666    1.73800485739082   10.72539782637132
C         1.59153751430254    1.06815811703175    8.76634418866999
C         1.18648697193198    0.67695847955073    7.34920398892420
C         1.88559470759819   -0.60330123806951    6.92199198201320
H         6.39909068925065   -0.11859108632953    6.47248980299597
H         1.90043395458745    3.32681980487888    7.92398440293568
H         6.23051361187944   -1.31004626511288    7.49163657082506
H         3.36815916042708    3.80107427285921    8.76472104328084
H         6.56318665845399    0.88549229085930    9.20775485707627
H         5.99351630001196    2.37529236028878    8.84226852340797
H         2.18401399745585    2.61767528922266   10.67042802739264
H         3.46941057282544    0.21198886609001    5.93674741112828
H         3.78480247715182   -1.24597640007046    6.63364625705908
H         2.92865192953446    1.02241922199889   10.88928332855529
H         4.49792294860134    3.60123648547063   10.39445760779523
H         4.15971603835722    2.85613439222281   11.94719038486718
H         5.33052205851548    0.77815030970240   11.21320366042383
H         6.39408569279849    2.20195173347203   11.18258306167126
H         1.59602008094063    0.16759947965275    9.38459278693464
H         0.83450170075338    1.75115896516745    9.16642312182227
H         0.10945650618844    0.50908984077334    7.34433520863879
H         1.40123921743596    1.47325834488347    6.63486086457187
H         1.46895671192033   -0.96242691703845    5.97505212808442
H         1.74347987365953   -1.37629169218963    7.68092053365282

