65
CSD_code = RUMTUQ | q = 0 | S = 0 | Stoichiometry = C18H41MoN3S2 | MND = 5
Mo        8.68092610646767    3.18949857659535   15.50647795608194
S         6.28675835559371    3.29060419560860   15.45093468551809
N         7.97885161915946    1.58187940818636   13.82812881366549
C         5.76159098252776    1.55990756086144   15.08352660090582
C         6.93512025096032    0.77551397707670   14.46929367672188
H         7.42976974692758    0.22202008328458   15.27374253976920
H         6.53317260472222    0.04536095914152   13.74462568747759
C         4.53474246934784    1.59375413789487   14.17199688120516
H         4.13558479676556    0.58802147745651   14.04440702024213
H         4.76518318182460    2.00378980410927   13.19272732058145
H         3.76740311863179    2.21717148575378   14.62465816230922
C         5.37473009955727    0.92901245613415   16.42137533243719
H         5.12250641735586   -0.12355537999098   16.29386583052816
H         4.51497728144330    1.44783602291374   16.83900043488397
H         6.20326288639803    1.02048268290575   17.12332780693256
C         7.47348250059495    2.22042867229923   12.61265595473448
H         7.02974130354684    1.47895267947013   11.93248697051094
H         8.29843812493697    2.71694987857550   12.09738670277148
H         6.72245405616807    2.97368105845292   12.86304895648797
C         9.06659036149048    0.67816207560540   13.45519644316739
H         8.70351460056852   -0.12150368794603   12.79386304319460
H         9.49575538632108    0.23602741415020   14.35288717500603
H         9.84761459961147    1.23542226808526   12.93830066767178
S        10.23573477084651    3.65753107769191   13.71139301627429
C        11.35712492112096    5.07561716835827   14.09309116991964
C        12.38751913065643    5.13240632250671   12.96876863912291
H        13.08322752595224    5.95188304519744   13.14117143308996
H        11.89503540223378    5.28497920276245   12.01101310556657
H        12.94582838519775    4.20018670082770   12.92030199690386
C        10.52523668842977    6.34905894242168   14.13408496565443
H        11.13663022179596    7.19758609262761   14.43960575459786
H         9.70611392803459    6.22182496313314   14.84306686883783
H        10.10385675415447    6.55762149531384   13.15165367439407
C        12.02764654108289    4.79644348968753   15.43162318006711
H        12.67178477222967    5.62789396487438   15.71668370262071
H        12.63384403173534    3.89325492010622   15.36232892776496
H        11.26463023599660    4.64677200617282   16.19925021373844
N         8.66646822588364    4.67470877977283   16.41540286378089
C         8.35423436418526    5.66683381924207   17.36132382606389
C         7.59652273113809    4.97845343486186   18.51613209630088
H         8.23744415832063    4.22687542561676   18.97362027294411
H         6.70976071395496    4.48668623410426   18.11754362681377
H         7.30046486166091    5.70612723130138   19.26800446784126
C         9.62003954672815    6.33806745360565   17.92746494578871
H        10.15877908158727    6.86271360542999   17.14247035166419
H        10.27776671632497    5.58680552599233   18.35980195723560
H         9.34355102107829    7.05235514627969   18.69927326819213
C         7.43767805931899    6.73495583427577   16.73194688180289
H         7.97011883797342    7.29282682547436   15.96421691064562
H         7.08711048051324    7.43140863717587   17.48986264625074
H         6.58105331187600    6.24190221075566   16.27348394955784
N         9.28818879286787    1.82501127628310   16.43257638821406
C         9.87742812534325    1.14780075388861   17.51815153393129
C         8.80043431371673    0.79314994958365   18.56300540248360
H         8.12397828318239    0.03857229786052   18.16548778249474
H         8.22712966320002    1.68754842115094   18.80384718154671
H         9.25990875606456    0.40403294431586   19.46836360794460
C        10.57458805043998   -0.14498774201858   17.04734635558791
H        11.31372590926566    0.09352215309208   16.28459648659314
H         9.84708861775165   -0.83760544313081   16.62703904745344
H        11.07264378350636   -0.63054024207246   17.88306153283917
C        10.92540934664859    2.07359816953721   18.16762139859766
H        11.70848487106899    2.29733929107338   17.44550979635507
H        11.36853757445353    1.60637079555211   19.04385603850020
H        10.44157764160247    3.00519001262106   18.45563807119574

