73
CSD_code = RUMVAY | q = 0 | S = 0 | Stoichiometry = C20H46MoN4S2 | MND = 5
Mo        5.63478827130063    0.88757226700800    1.75803366959348
S         5.77872746282415    3.23175782320088    2.20800522005129
N         7.29110575571749    1.75985207944692    0.21955615661391
C         7.53744503001237    3.68177498980803    1.87158310187209
C         8.19996442641534    2.57684033465747    1.03071827420156
H         8.96623364404469    3.03594515648160    0.38114103053671
H         8.70112660473722    1.88588064717187    1.71619663429770
C         7.58466516576903    5.05249132584480    1.19616661478700
H         8.61764516055805    5.38511061841912    1.09892865741785
H         7.04474306709997    5.77163161043409    1.80754809405630
H         7.12804362776075    5.04153340522450    0.21084853648764
C         8.23475812965858    3.77409143820257    3.22916094357030
H         9.30263862879223    3.95135644243005    3.10289956264012
H         8.08469517490286    2.84928020485248    3.78436654880550
H         7.80934639434312    4.59085944632148    3.80741952366532
C         6.69652248177210    2.55350112050191   -0.85655664881141
H         7.47174758415600    3.07265571763010   -1.43831031628494
H         5.99918580395335    3.28799324678557   -0.44621569051917
H         6.14008816037001    1.89441534395092   -1.52576062062311
C         8.08123425270322    0.68640726199593   -0.38305430903361
H         8.90236609003595    1.09575131053695   -0.98856367101743
H         7.44187234365930    0.07604122417839   -1.02071658261341
H         8.49364771031159    0.05349123755720    0.40139519258948
S         4.93259428643813   -0.10962250021369   -0.33899144239567
N         3.49033674437177   -3.58096818381007    1.18181987486182
C         3.72650619992098   -1.48174047040342   -0.11627997507782
C         4.28081429420640   -2.37035948483109    1.00775877138869
H         5.32208582420154   -2.61977189798046    0.75623828220016
H         4.30209156427025   -1.76574925386294    1.92779978180711
C         2.37048169648964   -0.89771208107246    0.24425670842269
H         1.67573274119067   -1.69858799142346    0.48833474230173
H         1.97220792703239   -0.32374413559135   -0.59089350810278
H         2.48067496436856   -0.23258265566180    1.10159719760568
C         3.66129888840009   -2.23973847648077   -1.43732031390848
H         2.98421058610775   -3.08419100131623   -1.33528915526187
H         4.64909801094593   -2.60096515949113   -1.71622629919348
H         3.30250497746140   -1.58497871877867   -2.22828783194274
C         2.86818098706622   -3.67986420641624    2.48418014608939
H         2.20729444284046   -4.54702473078845    2.49458372795121
H         2.27230071490191   -2.79028139210232    2.67061163857013
H         3.60012157627027   -3.79070375771656    3.30043732895479
C         4.22062323923049   -4.78799515180166    0.85927455176198
H         4.62960825809707   -4.70957863757860   -0.14559750483403
H         3.53457586558058   -5.63470974452223    0.88631111517135
H         5.04562083751222   -4.98867691923264    1.56249285582244
N         4.16718314421013    0.85801531699250    2.69556427602261
C         3.19772832048608    1.10746288455271    3.68205931460222
C         2.43739303006811   -0.17166435053585    4.08081125111829
H         1.82222855601248   -0.52340501826317    3.25609545637900
H         1.79159309461557    0.03224219077196    4.93150632288621
H         3.14451689945358   -0.95312084838824    4.35148387341955
C         2.19891662019219    2.16966163066504    3.18297456119966
H         1.65164493443546    1.79734160766598    2.31878452206720
H         2.74861609215169    3.06238118483514    2.88718901396113
H         1.48923295506746    2.42704006272811    3.96564458746605
C         3.93344568247891    1.64997662641354    4.92574046938704
H         4.63189010300778    0.89853638473808    5.29043126031804
H         3.22378054758590    1.89568911286376    5.71213773336838
H         4.49266478330947    2.54306411245863    4.65021831059415
N         6.93572171441819   -0.02823767716607    2.50874429742950
C         7.57780793433575   -0.83285413620446    3.47252197982340
C         6.57582112859183   -1.86963677950803    4.02012966450437
H         5.67815798382087   -1.34760110123382    4.34792978422648
H         7.00427462397102   -2.41965403008880    4.85483126164062
H         6.30597467139810   -2.57050671313401    3.23352167489455
C         8.78329702109842   -1.57524628947391    2.86023873352909
H         9.53648735468802   -0.86472143912340    2.52346186277117
H         8.45678090102821   -2.16817165076522    2.00774910418878
H         9.23422776556660   -2.23467101866987    3.59788253502245
C         8.06693466172563    0.04991971868088    4.63870770296815
H         8.86612223047926    0.70842926354799    4.30281025408251
H         8.44448209582429   -0.56430639297178    5.45290445331684
H         7.23581955059563    0.65654964665453    4.99752512337008

