46
CSD_code = RUMZOP | q = 0 | S = 0 | Stoichiometry = C15H27BrFeN2 | MND = 4
Br       12.84343810709714    2.50825957371778   11.22785407562370
Fe       12.53883050044498    1.84806423933481    9.10833127206207
N        10.79070236106769    3.47003523337330    8.28530719736702
N        10.37011614599335    0.86913341872698    9.72926661160788
C         9.47713253669944    2.85962172090889    8.50206451810062
C         9.43410787031801    1.99727515675104    9.76308274561894
C        10.96776870894223    3.79160620715121    6.87346274383227
C        10.90744335600916    4.69409920624996    9.07341984283746
C        10.01024381960300   -0.07366113290792    8.67256687552456
C        10.31720828213387    0.17513344915648   11.01502245547115
C        13.76309505498796    2.05527007186598    7.64383887301215
C        13.79682184789765    0.92800170842559    6.81453109851371
C        14.38411560574560    0.99134005430642    5.55797483742411
C        14.98227351011442    2.15905445857171    5.10897287351913
C        15.01261320596870    3.25514588140662    5.96112541512854
C        14.42031061626372    3.21319127434451    7.21520712262723
C        13.23204769264029   -0.38992210811195    7.29631613129493
C        15.63460413780360    2.22356071776478    3.75959566308143
C        14.54318674921818    4.40427361124877    8.12658504420247
H         8.69661324189227    3.63273735797568    8.58751273347595
H        11.94078656306680    4.25403620064975    6.73244305267804
H        11.88401296129767    5.13753887201352    8.90349799622195
H        10.22417054755341    0.35380371851948    7.69421804005233
H        10.57097802099114    0.86329682336599   11.81808184191687
H        12.97316539868074   -0.33537590031713    8.36142496579586
H        15.59067000226338    4.57567348453378    8.37249531627177
H         9.23143696367674    2.24585271177673    7.63367628743237
H         8.40137458519168    1.63334161643196    9.89886958254099
H         9.69447114615343    2.60995082538869   10.62835119682355
H        10.94156302718561    2.87900691441472    6.27955576597609
H        10.19065942657937    4.47899939882417    6.50973834783248
H        10.13326524055501    5.42491513588785    8.79825647880197
H        10.81801743376019    4.46729836943532   10.13238370717525
H        10.59786199411977   -0.98298473381912    8.78439227854941
H         8.94562152801084   -0.34396070664806    8.72164662388696
H         9.31844270739909   -0.24081903744473   11.20530770811408
H        11.04350888309845   -0.63599005471096   11.02032837141524
H        14.38809332347879    0.10975819223716    4.92890939646137
H        15.51438720574964    4.16057979790946    5.64410371769760
H        12.34884440899035   -0.67326273851723    6.72267220899083
H        13.97396073711927   -1.17743004934246    7.17120581240856
H        16.70808083976804    2.05364728112001    3.85396758956867
H        15.49010852109282    3.20255369321257    3.30645560652313
H        15.22935397939128    1.46388554500674    3.09469575618644
H        14.16568248318090    5.30779848941991    7.64763119826151
H        14.00210872078296    4.23156605039395    9.05505302209662

