44
CSD_code = RUMZOQ | q = 0 | S = 0 | Stoichiometry = C14H21N3NiO4S | MND = 6
Ni       -0.89551803922267    3.23029452518203    2.13373823574025
S        -1.87099428417806    0.42241498292333    5.49123701105397
O         1.84914377548330    0.18480793134900    0.61441917843424
O         0.27281233132044    4.84381492656162    0.82752828166835
O        -1.51761424206834    2.42354392578765    0.32051138953293
O        -2.38234976440025    4.68486763840476    1.61922222273998
N        -0.57507371145280    4.03973218751552    3.70684440641591
N         1.35637226433702    2.37964313939919    2.39208012183976
N        -1.74009546103077    1.65029307382221    3.01913924712783
C        -4.28690174125731    7.12703361007178    4.31385914245076
H        -4.80539904759643    7.77089475684925    5.00716084836431
C        -4.75412519650962    6.99121033856191    3.00135086604475
H        -5.63555975274047    7.53465335874249    2.69167854701193
C         1.81908535927244    1.51613112158564    0.15869821320626
H         0.79816841279073    1.77987898341846   -0.15458341316581
H         2.49129000195374    1.56211702134578   -0.70015144006166
C        -4.10827343864571    6.18189514467097    2.10901993835487
H        -4.46731300970770    6.07301338336437    1.09584300350921
C         2.26726692471453    2.48678975028519    1.25049676704964
H         3.29470117906684    2.23131164757308    1.55652475804411
H         2.25099855060085    3.50768855924649    0.87041670390286
C         1.03382479320701    0.03922789755498    1.75367612186864
H         1.13884165970012   -0.99662501601136    2.07922172845612
H        -0.01702377208166    0.23749246085337    1.49643400305197
C         1.44591481751855    0.99575586007023    2.86999017975466
H         0.78205779313808    0.84399101718774    3.71949674885287
H         2.48053943826037    0.77190343724699    3.17689511622457
C        -3.17146852006374    6.43730760760183    4.70401747420675
H        -2.80356807518859    6.53455979863864    5.71621400121916
C        -2.96205768391922    5.43041894386313    2.47908645468302
C        -1.79851814412903    1.15963799980300    4.09098254951258
C        -1.32038123359510    4.91791761077511    4.29002141802569
H        -1.01706986508790    5.22570215317107    5.29380277082126
C        -2.48669504917592    5.57898990288206    3.82161946973501
C         0.58048629806819    3.53258075387297    4.41967941938438
H         0.31367233432416    2.58481178930592    4.90100840481965
H         0.88732504775759    4.23611529336556    5.20285002005997
C         1.73911627452439    3.31977889044932    3.44600402214981
H         1.97128564278402    4.27728701069672    2.97223964700983
H         2.62601738865509    2.97005443339201    3.99715199659729
H        -2.25491840181862    3.04498045034335    0.20806805024315
H        -1.91717393713550    1.58680768853925    0.59386365872106
H        -0.46873654630893    5.45538336876383    0.93735464317568
H         0.15650862984141    4.43749064097663   -0.03691192784897

