128
CSD_code = RUNCUY | q = 1 | S = 0 | Stoichiometry = C64H57N2P4Pd(1+) | MND = 4
Pd       15.28876867943465    3.40728276855796   13.90749278624751
P        14.76341211658546    3.75949263631260   16.20310858498224
P        16.77064635275997    2.12417472247341   15.14943164327289
P        13.73389998510346    4.57661573539716   12.77778832488557
P        11.33078915603396    4.58875401533130   10.99606394975059
N        15.71006818758627    5.25191259710230   11.61690000558013
N        16.01791589080494    6.23825410718278   10.89407297297591
C        15.73654390243359    2.24201827228786   16.67955780342223
C        13.14814001417314    4.13349283843026   11.09698621479187
C        13.35362827422434    3.80300965494870   17.34698555459076
C        12.64889393908657    2.64282889211661   17.65233989663930
C        11.52345834126563    2.70549156872053   18.45238848245974
C        11.07911125207644    3.92554328799351   18.93406394033764
C        11.76397992648978    5.08669324676332   18.61414452456284
C        12.89315862543722    5.02952184881083   17.81985780146881
C        15.88784175435317    5.04735408371332   16.81216650419345
C        16.50135621119155    5.84280580068575   15.85074215702549
C        17.41034741217702    6.81334033504587   16.22857513148152
C        17.71102651814655    6.98279769407860   17.57004511345030
C        17.10257982922175    6.18926399051538   18.53112565762146
C        16.18774904760826    5.22207576586475   18.15868780436672
C        17.54926035983770    0.48575810225757   15.12675342041146
C        17.29889109860132   -0.50559398469856   16.06691057602146
C        17.94839557104143   -1.72399451036476   15.96492937544614
C        18.83524957316055   -1.95880392711428   14.92753832562573
C        19.08153012739931   -0.97202663240644   13.98441676854810
C        18.44046093650149    0.24703054677793   14.08118233593471
C        18.20646949113108    3.19522129648562   15.44963255026065
C        18.97234269531151    3.10886778862570   16.60616645396016
C        20.05715562043789    3.94963103708196   16.77126703538016
C        20.39268474138625    4.85749440385608   15.77878686894008
C        19.64380142899042    4.93018783606448   14.61556343110298
C        18.54757641769726    4.10342771816669   14.45057189668725
C        12.37896366100323    3.72598099492023   13.71765652560585
C        11.29415670178630    4.34744718857702   14.32070653653648
C        10.38372134139480    3.60144995186254   15.05226294641984
C        10.53504668471585    2.23252652395246   15.17033899824335
C        11.61275105602110    1.60060441983633   14.56783296155720
C        12.53972076411390    2.34357711181612   13.86243942043771
C        13.31992404708138    6.30832609193902   13.07846032980010
C        12.89549610908650    7.18095245517218   12.08523931878776
C        12.56882091826087    8.48548831592666   12.40963231342719
C        12.67724135634576    8.92841335192548   13.71713103281437
C        13.10701825786141    8.06250541362698   14.71097264483989
C        13.42585881379932    6.75786555439627   14.39129206194705
C        10.57230968349847    2.93636837161110   11.24151289702613
C        11.04721011306134    1.76929780432351   10.65139942441802
C        10.40870828308599    0.56635601082314   10.88646285303911
C         9.28591630469755    0.51682650825085   11.69766755636428
C         8.79073622609429    1.67899595025043   12.26269821920885
C         9.43136682212109    2.88329788138851   12.03400219873529
C        11.18545586621400    4.71748977822400    9.17157501150625
C        10.11197510857162    4.12160917821868    8.51407088348781
C         9.93971201354449    4.29351523413352    7.15310001858295
C        10.82378868865066    5.07708775904234    6.43084867703715
C        11.87414413241926    5.70186783820693    7.08160871089723
C        12.04767903557093    5.53355564132355    8.44278138230555
C        15.92817996960066    2.94058196493349   12.07415561039102
C        16.14048874151745    4.00320714280955   11.18648746024081
C        16.71591268239366    3.76751580058712    9.93013698936520
C        17.05000586570213    2.48556585643198    9.56672488178035
C        16.81765123233039    1.40876271113555   10.42782539698624
C        16.25797206372918    1.65302580898111   11.67855413210612
C        17.17273458355258    0.02075597990498   10.00338744885327
C        15.77798617928107    7.51952339559398   11.29479235582819
C        15.93797743712655    7.92630527574139   12.62508579085463
C        15.81600151663127    9.25420114090671   12.96403480786471
C        15.50324251770124   10.21209316111001   12.00404183951511
C        15.35362780442209    9.80415264322828   10.67821680743375
C        15.51142667690770    8.48678628071152   10.31626777304441
C        15.36008364517845   11.65308964151601   12.37029631452934
H        16.26560448976543    2.30881170847531   17.63473115471394
H        15.05729267872139    1.38150648277988   16.68114810154162
H        13.71206306763788    4.65843424576699   10.32517607669529
H        13.30020617361055    3.05660410364133   10.96997576395492
H        12.97366077240483    1.68809297859612   17.26328111379641
H        10.98931320387998    1.79983874561251   18.69738184723077
H        10.19849263750870    3.97195042896670   19.55609843314167
H        11.41676101054115    6.03936175916092   18.98475061914097
H        13.43039840372105    5.93615529347815   17.57566639886375
H        16.24876780197162    5.67462209067619   14.79785439852587
H        17.88640745883927    7.43319860714149   15.48344666383446
H        18.42188989050590    7.73717347504989   17.87069546291032
H        17.34213112017124    6.32752831979703   19.57463071320914
H        15.70158932739764    4.60799573609869   18.90487995841035
H        16.60791092735435   -0.33204562823465   16.87948761975350
H        17.76013970387687   -2.49277978409233   16.69918097783124
H        19.33548981670973   -2.91203039344707   14.85317747644967
H        19.77313245518434   -1.15547079341506   13.17612066273626
H        18.62282664603384    1.02910281871931   13.35362223061669
H        18.72100942045780    2.38542203498196   17.36988308199848
H        20.64819808642769    3.89255688694831   17.67275627996275
H        21.24460900185606    5.50656774293296   15.91212093989786
H        19.91281875453960    5.63187592742204   13.84014403917049
H        17.94072965849300    4.15622275838815   13.54351532493546
H        11.15646155671627    5.41452280735155   14.21882819267719
H         9.54882126947474    4.09530702885747   15.52671185389734
H         9.81715454325177    1.65472185262051   15.73217789683902
H        11.72753607104097    0.52921541926152   14.65200586668912
H        13.39162566566911    1.83615860679597   13.37976351010337
H        12.80834987904247    6.84674156497367   11.06145907683224
H        12.22906042080369    9.15807983689568   11.63695638914722
H        12.42245238232120    9.94790370868911   13.96320501171513
H        13.18833320586618    8.40580221451153   15.73192873844546
H        13.74792527218441    6.06006937998394   15.16002499741213
H        11.90097552261939    1.79765094343372    9.98724112725759
H        10.78180402467752   -0.33695160752539   10.42599068869623
H         8.79109013529798   -0.42611163933738   11.87569472754887
H         7.90433801066911    1.64837220968971   12.87855917415500
H         9.04836984603282    3.79729075578978   12.46614634697417
H         9.41098150969580    3.51649930536444    9.07125133882242
H         9.10878902884153    3.81585644963727    6.65574949729066
H        10.68963884302156    5.20905381635477    5.36810007047233
H        12.55788656035039    6.32848532401819    6.52773431132698
H        12.86474895227489    6.04861932160614    8.93147081016467
H        16.87389324033118    4.60481687712733    9.26685722266647
H        17.49402158542000    2.29979515448175    8.60013553431099
H        16.08236096237674    0.81290958841132   12.34794605918445
H        17.05185643358396   -0.68566739913660   10.82095643208827
H        18.20305960196466   -0.01680090432198    9.65341515565467
H        16.53553227675380   -0.29239051353870    9.17650857222939
H        16.20468394842037    7.18373531702289   13.36130171365770
H        15.96137636284789    9.55603326587266   13.99143822307020
H        15.12098414876600   10.54071033848647    9.92335285902569
H        15.39319130881866    8.17494622911654    9.28991760386982
H        16.24278216435960   12.20838134502980   12.05197174344168
H        15.25040183507693   11.77513078283843   13.44473754898488
H        14.49892454096689   12.09312140359413   11.87169194181151

