62
CSD_code = RUNCIM | q = 0 | S = 0 | Stoichiometry = C27H26ClN2O4PPd | MND = 4
Pd        6.68802061482088    3.72017004971442    4.60414375762777
P         5.59477805098653    3.44548404563046    2.58949947733868
C         5.27003203641635    4.62825106409031    5.64968453140887
C         5.77112433097921    4.97487560195838    6.93500386354492
C         5.03064962064316    5.78612152883164    7.79956364448574
C         3.79740609181982    6.25373404025396    7.40342668279010
C         3.27933762938378    5.91770840900566    6.15408828763533
C         4.02794679567341    5.11235417979809    5.29451397534107
C         1.92487521831316    6.39184783869176    5.72968716251215
C         8.65904905022823    3.02428531391353    6.72491913242976
C         8.89992984264683    1.82879336008653    6.03884581888380
C        10.08086404068519    1.14975753554439    6.24696121987587
C        11.04400911776272    1.64280748508469    7.12493910650378
C        10.78534235198749    2.82592903873118    7.81269201578108
C         9.60486951252497    3.51274804188705    7.62875542671078
C        12.34742134854112    0.92959188894655    7.30037618406210
C         6.56463291224473    3.03383506028547    1.08478625191323
C         4.56053345983256    1.93991530316919    2.72214811987346
C         4.59851630286262    1.22919519609035    3.91768556290217
C         3.86917703072677    0.06235155315385    4.06593904380884
C         3.09396887959667   -0.40516112396170    3.01773376135620
C         3.05528139682424    0.29285924689802    1.82111511492684
C         3.78695559061810    1.45685554757300    1.67083882055424
C         4.46991603334378    4.72391150243007    1.93075249775364
C         5.04617867253608    5.92547753791058    1.52369765271880
C         4.24867975480737    6.95358282527969    1.05516940845684
C         2.87234407745449    6.79907580775411    0.99973640073840
C         2.29379990348536    5.61583507200661    1.42686102656987
C         3.08606580273639    4.58221257840838    1.89700184210791
N         6.96133289811313    4.43520725828897    7.33437423370566
N         7.47943614719634    3.69119421696369    6.45365090139165
Cl        8.88579139645317    4.48199885112415    3.37425279330654
O         8.51914116553895    3.08290524649058    3.42942263523099
O         9.05694467188843    4.98092686596462    4.69203196424593
O         7.84017663902427    5.21448566617338    2.72210967764450
O        10.07741997312355    4.59777907488858    2.63254478915637
H         5.44688798140761    6.03944640520746    8.76215219413059
H         3.22351522299632    6.88656727781093    8.06476823517662
H         3.60111184145554    4.86016636494048    4.33218002542244
H         1.18895161283977    5.60408428496818    5.89536404675361
H         1.91937390213714    6.63587813188672    4.66926318002732
H         1.62024705404024    7.26577643197519    6.29998782046685
H         8.14609856591863    1.44523583764750    5.35053807458265
H        10.26888497102376    0.22834963605190    5.71545738903080
H        11.52804542314742    3.21508719957397    8.49398723711262
H         9.40441288694641    4.44153981935412    8.13899575326860
H        12.76740069103567    1.12086737463459    8.28498864674526
H        13.06112909247423    1.28297678600994    6.55542004052590
H        12.22678444528905   -0.14279008767645    7.16584920820286
H         7.23995038494614    2.21200845451859    1.32111384043408
H         7.15366057654974    3.89997525831908    0.79232687021794
H         5.89432948138309    2.74884585527628    0.27445303700782
H         5.21253182410106    1.60985735913389    4.74034131496921
H         3.90392087272342   -0.48248857372712    4.99772706897659
H         2.52145215025161   -1.31373826342874    3.13070387358180
H         2.45293459681807   -0.07266315266403    1.00223479007951
H         3.74867264446102    1.99628849695485    0.73478086656324
H         6.11649901588966    6.04756542222657    1.60625400334389
H         4.70041732503642    7.88199834822608    0.73888675531491
H         2.25042800131403    7.60318556592222    0.63465421632410
H         1.22006128515466    5.49699747972279    1.39997479108499
H         2.62394978873653    3.66827957809629    2.24354393550268

