67
CSD_code = RUNDIN | q = 1 | S = 0 | Stoichiometry = C32H30N2OPPd(1+) | MND = 4
Pd        1.05268590419147    5.54348597614491    2.67467755952590
P         0.86997167443522    7.14018823668865    4.27197018899609
O         0.61012173709115    3.75358608518760    4.41980756458552
N         0.59335149403457    4.32171139419491    0.16310079984522
N         1.23389374052721    4.20376452888613    1.24551379376075
C         0.06318460282613    6.42890639197416    1.15983169974448
C        -0.07724175681214    5.50565274411991    0.08603351166126
C        -0.83788993655893    5.85031180674864   -1.03547020826222
C        -1.44748363147058    7.08420198639350   -1.09061749953653
C        -1.30746450930820    8.00348622949547   -0.05160129266379
C        -0.54305775692756    7.65850603440728    1.06958506122228
C        -1.94288187352664    9.35115889476794   -0.12747397861966
C         2.05678436934896    3.12673137399057    1.48907597044146
C         2.03875699705373    1.94266588390969    0.74343012465787
C         2.91090812722079    0.92880482003581    1.06980054500652
C         3.81864504380261    1.06305672420165    2.12289304269690
C         3.83774410814292    2.25213949089849    2.85171888905782
C         2.96743009109569    3.27586059722389    2.54691500906564
C         4.76124623830409   -0.04833570785237    2.44114503332881
C         1.33589988133324    6.60554060289158    5.94675503580598
C         2.60416561361025    6.03985255968467    6.07418671726358
C         3.04454155035151    5.58969784951160    7.30349792356868
C         2.21573297945308    5.69387296741459    8.41143824438076
C         0.95065417898431    6.24461793505931    8.28638354874457
C         0.50416991186358    6.69881860761142    7.05624783732110
C        -0.85322872968797    7.69767078335623    4.43165006273198
C        -1.81354899321359    6.77605210119260    4.01407574979925
C        -3.15654558677864    7.09218323898778    4.08792092799816
C        -3.54568730478292    8.33309877486303    4.57037279446644
C        -2.59351531077740    9.25560356829333    4.97296127320121
C        -1.24606186039624    8.94357635286657    4.90507758077902
C         1.91597234141986    8.60085606763363    4.01883649441571
C         2.51606117177332    8.74343835849292    2.76968476396358
C         3.33127209764266    9.83142694346872    2.51587114724335
C         3.55500147975782   10.77247082707126    3.50870332130477
C         2.97914692810570   10.61871333708992    4.76053603308879
C         2.16444459299653    9.53223840526198    5.02274333428122
H         0.56700438763899    3.93471891317462    5.36323957440319
H         0.10455744810682    2.95352674177123    4.25035677775539
H        -0.93518871375395    5.13687877724507   -1.83823618859441
H        -2.03986584605152    7.34883519792007   -1.95320605900995
H        -0.43269142827195    8.38805661159109    1.86511737496063
H        -1.21606327573657   10.08058712168769   -0.48668769257244
H        -2.28239796704197    9.67611456428959    0.85362237313142
H        -2.78353046549706    9.34841949877415   -0.81587389171072
H         1.33611883000754    1.84579308700087   -0.06959769342506
H         2.89925625261220    0.01143939222247    0.50080162953486
H         4.54642551451177    2.36874682474787    3.65830532122535
H         3.00110601368547    4.22783563196971    3.10109386197679
H         5.28609529436600    0.13110025229451    3.37532957887369
H         5.49929261193057   -0.14588318623627    1.64496138848009
H         4.22906260986788   -0.99536055130646    2.50838932177636
H         3.24181208529325    5.97142000831017    5.19745618384422
H         4.02987486028440    5.16039137432125    7.40325211977964
H         2.55808416434795    5.34524397005354    9.37340450324809
H         0.30873103424499    6.32440662310036    9.15046422796042
H        -0.48327595077565    7.12759984706518    6.95799034269088
H        -1.48735602520325    5.81127422539514    3.61278850687607
H        -3.90064721850297    6.38027005610698    3.76462590300490
H        -4.59377029817446    8.58390309025184    4.62492220380101
H        -2.90075068077220   10.22345666800674    5.33906048169191
H        -0.50442800339998    9.66874953172185    5.20689627481396
H         2.34132643120350    7.98421285403430    2.00460351441776
H         3.79643650899640    9.94416001747275    1.54842307711688
H         4.19033370295971   11.62206412607086    3.31126512881524
H         3.17130928544663   11.34461112701780    5.53599038937930
H         1.73745923231553    9.39471483171439    6.00686286082619

