54
CSD_code = RUNDUZ | q = 1 | S = 0 | Stoichiometry = C16H29N4O2P2Ru(1+) | MND = 6
Ru        2.70448472944218    1.59412166520920    2.60845845039290
P         2.94222505662559    1.27866387885225    0.30012639723507
P         2.31733587778003    1.81726102246434    4.91823456305625
N         4.34032677761858    3.24517605387072    2.77000341621059
N         1.72000231678801    4.49985076511970    2.08814530676818
O         0.27110787356292    0.57000043539224    1.74285010732715
C         3.96371589042312    0.28650704656995    2.88402025232796
N         1.34663251948751    3.23864384677945    2.35967729732867
N         4.07531092669535    4.51621736303141    2.45488545710790
O         4.79770681417770   -0.48378858309593    3.05235910761413
C         4.97167308184436    5.35675167843178    3.01664777284426
C         2.50422294332055    3.50807363399905    5.61594782816356
C         1.21201710610057    0.24669347430816    2.42408751106511
C         0.69639630446631    5.36076747709415    2.28609760156122
C         2.84949710309578   -0.46365811094768   -0.23873511520487
C         3.01171605844526    4.80562140478712    1.53458242472411
C         0.07927842762306    3.29861030004591    2.73397289706944
C         3.44328268302883    0.87931930759711    6.01092226177608
C         1.68885019337275    2.02107223274039   -0.80872623083384
C         0.68740286188357    1.37612083842947    5.62925034158857
C        -0.38018846939864    4.62016398868687    2.70280143424557
C         5.41071851802437    3.26539949450934    3.54347464979807
C         1.29898710749550   -1.12464884485589    3.05732537472548
C         4.53665209833511    1.76113678392324   -0.46849197547120
C         5.85293005023884    4.58145859337448    3.73029874656374
H         4.92564535465260    6.41655851244793    2.87128880794987
H         2.29028077512648    3.48144181857786    6.68424034700638
H         3.52224132567982    3.86635559508805    5.46780083223576
H         1.80615073128750    4.19363089771490    5.13466188618189
H         0.80128365541796    6.41261876468748    2.11403972400967
H         3.05623956198038   -0.52785878176724   -1.30758382627880
H         3.58166881516882   -1.05739741395531    0.30841274509643
H         1.85007533469888   -0.84886271503671   -0.04235447729257
H         3.04166413187542    5.86448760198959    1.26577565505040
H         3.16088732001089    4.18575262671126    0.63490515220289
H        -0.47258655139993    2.40946760522668    2.97113661941154
H         3.21742176980925    1.09317517326107    7.05562230737014
H         3.32877231293440   -0.18809586005607    5.82653147935185
H         4.47450221717524    1.15783502544596    5.79850480586488
H         1.83885447361154    1.65237598977316   -1.82337643434495
H         0.70656756181386    1.71289691735938   -0.44977837358157
H         1.73933551991034    3.10921057641400   -0.81171130008038
H         0.75590565677161    1.39375876342708    6.71720627762405
H        -0.06332526280704    2.09599181883254    5.30765693691648
H         0.38542832933419    0.38371377639482    5.30260049156264
H        -1.35980193938871    4.97222724622876    2.94806440142208
H         5.83382146529052    2.35453679200173    3.92168116624973
H         0.30697792545146   -1.56843860881616    3.13779845980782
H         1.90350344401205   -1.75874592671309    2.40862397722002
H         1.78191217200059   -1.09188998820353    4.03215059933885
H         4.51845429438309    1.53185094401500   -1.53375810095842
H         4.74881137998822    2.82052296257669   -0.33343867363538
H         5.33072973514853    1.18908108694914    0.01118469794233
H         6.69579363958463    4.90956305310734    4.30109793837464

