54
CSD_code = RUNHIR | q = 0 | S = 0 | Stoichiometry = C23H27ClOSTi | MND = 8
Ti        1.41190291926283    5.84314998364652   10.40405846154243
Cl        1.29327962821804    4.50439332259465    8.68580813486673
S        -0.74476547818022    5.50154191394537   11.24266940075948
O         2.31063437858101    5.03689705652859   11.53217854563249
C         0.58787794823856    7.96988863825251    9.94732310618091
C         1.37682465395786    7.59232881060526    8.84928316004186
C         2.70500133074188    7.42137466508952    9.30028140398501
C         2.73932666269060    7.71891098418024   10.68343521976228
C         1.42531622745030    8.04012199254523   11.08829795745787
C         3.21670721791644    4.54656089943956   12.36998123492671
C         4.36117669646095    3.90995382466758   11.85233332384522
C         5.28104280917295    3.38120210284292   12.74294976283104
C         5.09534752633734    3.49667542090807   14.10950358163715
C         3.98686571100868    4.15691161136586   14.60823767183782
C         3.03220198276272    4.68934704289372   13.75672946121567
C         4.52652284197066    3.80948969031813   10.35320926926263
C         5.96585194471040    4.06275001158396    9.90419628678253
C         4.04236317237804    2.43627666281618    9.87627501672257
C         1.83673181664769    5.45881627362464   14.26733626842027
C         2.29009182020039    6.84169347877930   14.74783715164173
C         1.10306660842571    4.71053321153062   15.37925853827124
C        -0.67306941045381    3.96823406259320   12.10790201236961
C         0.19836758567892    2.95118804769372   11.72487964587190
C         0.23674560746267    1.77224514035102   12.44678368140037
C        -0.60230434170873    1.58584702769104   13.53430787577720
C        -1.49216131173912    2.58505702880973   13.89456216314337
C        -1.52822491251946    3.77303724150489   13.18971003171470
H        -0.45669449573600    8.25608490267493    9.91616575842586
H         1.04775572189480    7.53121229212695    7.81920468726960
H         3.56636672155757    7.22163589069704    8.67283514687824
H         3.63244358836677    7.78109196478654   11.29644543518465
H         1.12832937896073    8.40508973972749   12.06390305499341
H         0.83045305813365    3.08488280832238   10.85102613473772
H         0.92191214410349    0.99016863996500   12.15307530251160
H        -0.56739947147211    0.66257278300033   14.09300581874979
H        -2.15740791280499    2.44131656496987   14.73330844661658
H        -2.21261476241791    4.56111340712274   13.46505595451547
H         6.15678795877879    2.87516983056354   12.36786638053156
H         5.82329905441479    3.07813660289071   14.78807124344909
H         3.86400342903261    4.25824020878740   15.67532841096697
H         3.88186703880133    4.57801327850922    9.88735895481477
H         6.62009224778312    3.24843072021813   10.20501436086438
H         6.00397052837222    4.13996011615429    8.81995815102082
H         6.34456594891623    4.98881225439811   10.33187951544294
H         2.99904597582305    2.28997525950265   10.15065673784542
H         4.12471576148958    2.36405443772377    8.79445892620465
H         4.63717518015184    1.64576646155911   10.32982987063231
H         1.13850808696078    5.60225515324487   13.42680906136853
H         2.98386330128984    6.74694384359806   15.58056652365871
H         2.79067416949622    7.37715061846922   13.94221020948866
H         1.43251984073134    7.42478268916441   15.07589681808486
H         0.17282081157801    5.22089733663061   15.61669290819021
H         0.86723175615233    3.69774492924912   15.06203339784394
H         1.70589330397680    4.66337111924745   16.28281442180413

