59
CSD_code = RUNJEP | q = 0 | S = 0 | Stoichiometry = C25H30OS2Ti | MND = 8
Ti        1.63978291526086    6.58523084589039    2.57463446678609
S         3.52149331699402    7.87120184793938    2.17302660057951
S         1.62475517230715    6.68236495319461    4.88693975377912
O         0.46009480803224    7.70994294472269    2.24333759569567
C         2.00815499639754    5.22626536642403    0.75631050113036
C         2.90150720057165    4.82538271175786    1.77664082435016
C         2.14136924592848    4.35080952282239    2.86045969040787
C         0.77368640431418    4.45564117361122    2.51647809102009
C         0.69119919860196    4.98934492408542    1.21064495733993
C        -0.63040009765229    8.26702724082322    1.72577573354837
C        -0.54086204611432    8.96698873690883    0.50827673971922
C        -1.68692192045749    9.55580300612113   -0.00169845564787
C        -2.89525838204529    9.45705449589594    0.66485517112115
C        -2.97929258664719    8.74495595202759    1.84799198603191
C        -1.86046706286659    8.13900356030664    2.39696611439270
C         0.78157448234222    9.02429524263645   -0.22261774259613
C         0.68061226312564    8.26770597500771   -1.55026622055274
C         1.23284772459313   10.46786673278394   -0.45104710045834
C        -1.93583303528193    7.31990550639199    3.66566080365654
C        -2.46235142333855    8.15044672178584    4.83744293603089
C        -2.80826206055624    6.08178836805490    3.43973889753069
C         3.08521614290618    9.51077821753207    2.90689953904473
C         3.56564849167231    9.56877063588617    4.32072849870562
C         2.81000194368310    9.09588385108076    5.40061553034284
C         3.36005762473037    9.14044056344963    6.67892730752121
C         4.62743711837273    9.64143504048790    6.90119866352931
C         5.37476886373926   10.10883371519271    5.83334835924153
C         4.84317181310803   10.06828073116258    4.55959106160309
C         1.45410043050868    8.48898662730928    5.23854703836486
H         2.29218694336489    5.55313575356677   -0.23722889883050
H         3.98164234224094    4.79789276706628    1.69315602796707
H         2.53067002308457    3.89240443525345    3.76197169977046
H        -0.05535562020535    4.08817067305481    3.10999128296374
H        -0.21518326227682    5.10493511729528    0.62557184922282
H        -1.63604762865166   10.09780196588341   -0.93375503975804
H        -3.77644631271922    9.92792584273220    0.25576308490513
H        -3.93070245212320    8.65815963264387    2.35034807152921
H         1.54272794470862    8.51676182608573    0.39515866210948
H         0.36169091118682    7.24091553962881   -1.37649986480652
H        -0.03877854443795    8.74325945727469   -2.21317345726550
H         1.64909471770410    8.25276386768377   -2.04528903736620
H         2.22905151648466   10.48024754272956   -0.88690548180595
H         0.55537933908702   10.98481642430956   -1.12648529167765
H         1.26131146550900   11.01235742990248    0.49053925422545
H        -0.91848585270849    6.97222644384204    3.91645473620822
H        -2.41469569368575    7.56884701180246    5.75510409532069
H        -1.86402088628924    9.04996058379508    4.96732289135816
H        -3.49550277729359    8.44624695429726    4.67081150126307
H        -3.83407055063274    6.36678741777953    3.21712832590125
H        -2.42509588249648    5.49671544777303    2.60488620420504
H        -2.80876924087629    5.45833538822805    4.33111439547064
H         3.60586410654792   10.24961439116776    2.29414422764859
H         2.00535041812026    9.64664241974712    2.80408437919556
H         2.77767889504431    8.76472944877537    7.50804251405592
H         5.03165886434303    9.66385316205853    7.90219070152035
H         6.36863382081089   10.49991009212857    5.99192270004990
H         5.42710353912795   10.42228170028054    3.72203618885622
H         0.86757991422501    8.93338846084068    4.43005179059606
H         0.89229840060316    8.54997759106200    6.17293514494936

