31
CSD_code = RUNJIU | q = 0 | S = 0 | Stoichiometry = C11H15ClN2OPt | MND = 4
C         4.42030896998569    9.84651057464947   13.03254607085558
H         4.94272945753293    9.01449718158537   13.51323674999027
H         4.74477508141803   10.78322101561081   13.50505989024652
C         4.77939957724225    9.83819828282579   11.54500617815917
H         4.45357458886296   10.77100508812442   11.06651619812771
H         5.86757723164901    9.76462368259104   11.42040400817637
C         4.59086582764004    8.16289305678959    9.86179701194732
H         5.55415426630121    8.52014612416998    9.48931551202629
C         3.99020901209442    7.11450056214888    9.11916476082561
C         4.71101909035413    6.60517118686079    8.01652049130678
H         5.68267287929921    7.03138578608940    7.80574860251219
C         4.21970315820750    5.60511115958522    7.22603599943452
H         4.79211588317501    5.23227869058182    6.39082866388039
C         2.95815019112313    5.06705933557797    7.51073955989893
H         2.56187017091846    4.27785712458554    6.88854031212474
C         2.22759926640632    5.53195167708158    8.56646914509413
H         1.25408731293411    5.12765139453621    8.79767265970668
C         2.70072026842807    6.56595719258529    9.41928937033339
C         2.22354037684757   10.87469371204244   12.97541617655155
H         2.38779883262078   11.22176030093861   11.95526611350213
H         2.52694870967081   11.66309109839505   13.67460453372173
H         1.16103698006177   10.66893034885034   13.10529695290054
C         2.71940649336124    9.20874254125482   14.60480886582135
H         3.06055206616682    9.96812433267029   15.31704453876565
H         3.23747055621887    8.27034859295136   14.80089377980500
H         1.65089935811290    9.03685898038380   14.72889602695832
N         2.97301099806563    9.64059161167339   13.22703869877828
N         4.10113290902473    8.72221135418456   10.91942090383265
O         1.92123952176457    6.92298537696674   10.37821328213517
Cl        0.43235061355518    7.84816494606227   12.79662402819392
Pt        2.39898035094882    8.25447768765289   11.78548491438740

