46
CSD_code = RUNJUF | q = 0 | S = 0 | Stoichiometry = C18H25O2Re | MND = 10
Re        5.92199780179856    6.46821107368435    3.73496943063745
C         6.86429840959778    5.31908356287741    5.49823480669512
C         6.97029798443113    4.52236312748204    4.35669045938045
C         6.16881265721752    3.25938178889883    4.16323644854423
C         6.45612948976720    2.58191159243016    2.81746360514447
C         4.67270398201055    3.52743466779537    4.30202925089969
O         3.89484796522236    2.67214646420163    4.65352750541172
C         4.20958167858348    4.90826980469146    3.99435567068859
C         4.22911142903090    5.43481676001138    2.67452920453235
C         3.06907849691490    6.23558135992345    2.15175043067914
C         1.90278738997292    5.38093313054588    1.59152471206158
C         2.39746548765465    4.44086460718230    0.48999977634252
C         1.24241148222029    4.56342370932939    2.70055744954670
C         0.87210115972935    6.34730565654888    0.99966911126192
C         4.93556745042001    7.45118559983705    5.05022813811012
O         4.36334548304956    8.09023704628771    5.81902086462493
C         7.12827286567687    8.35519378976710    3.00408975120864
C         6.13011865909383    8.09267842555203    2.01821538257072
C         6.54125482212721    6.93344494352733    1.29022266099294
C         7.70144462958986    6.43714645747183    1.87384193350036
C         8.06009332919723    7.29531005131038    2.95393807393254
H         6.18724561115144    5.02157238360192    6.29249983248058
H         7.72625054801185    5.88604980450939    5.83450835306543
H         7.91409697507543    4.53176694431174    3.81657353285424
H         6.43040435950239    2.54579536146147    4.95551878926287
H         6.29521624866327    3.26911786790056    1.98978058409478
H         5.80212363371917    1.72328923011356    2.68544231469141
H         7.48855013390154    2.23894150524137    2.78322082175263
H         3.33873559470061    5.17692677495987    4.59494979928698
H         4.72700716504678    4.83560191853392    1.91303186252922
H         3.41729928692139    6.88468438195023    1.34526344372132
H         2.68424367952127    6.86819998947235    2.95431877621366
H         1.55099377915780    3.96965046827042   -0.00448443823690
H         3.02216652166971    3.65258317596418    0.90245908162952
H         2.96623188711275    4.98653742126705   -0.26050195291023
H         0.38542558331935    4.02461010136346    2.30228929785785
H         0.89362026362264    5.21370026932088    3.49905185194315
H         1.93106474864784    3.83663538972587    3.12141626196944
H         0.01171026180058    5.79950648045451    0.62242897412247
H         1.30109118172395    6.91556933696624    0.17710780916267
H         0.52631169969765    7.04740473861196    1.75624618607546
H         7.20893190973694    9.25169268271210    3.60008798619710
H         5.37347641525511    8.79271231445129    1.69816470906331
H         6.05099203168248    6.54089652910211    0.41398350995035
H         8.27927479562252    5.59684703928014    1.52225454497961
H         8.98141303143107    7.24138427109932    3.51559340147612

