57
CSD_code = RUNJIT | q = 0 | S = 0 | Stoichiometry = C21H32OS2Ti | MND = 8
Ti        6.51939442344210    3.93031696463701    2.04088230594366
S         5.05215493656626    2.27007387823634    1.35731448060395
S         5.01567928493175    5.47331860171263    2.90872448983298
O         6.88492347845263    4.62140182169985    0.55913924378472
C         8.08824930326822    4.54248052984556    3.63879549503602
C         8.74545656261221    3.77706110155601    2.65199204651838
C         8.18596382997412    2.47850046065563    2.66841077114846
C         7.19384481992804    2.44279779535397    3.67601647043462
C         7.13576597538898    3.71364533464853    4.27409858012283
C         7.77136448061528    5.15632643254882   -0.28030724954480
C         8.02972745240610    6.53974748754762   -0.23015479739773
C         8.93630341228485    7.08148952948341   -1.12714626443072
C         9.59174642281044    6.28479389448788   -2.04816397563604
C         9.35809943206847    4.92239222626560   -2.07041068976156
C         8.45619224409645    4.33535476366891   -1.19618114308964
C         7.32532620845079    7.39666029419018    0.79588897071142
C         8.32892174874679    8.18164342443631    1.64327698453879
C         6.33023158664613    8.33948434370281    0.11475921071473
C         8.21840984020821    2.84156596991717   -1.20687475357633
C         7.64416163701457    2.39477602508476   -2.55363798017092
C         9.51576245271864    2.08626500667140   -0.90445710181176
C         4.46831299283401    2.67245363426752   -0.34003024238136
C         4.37017736568673    1.39928572731955   -1.16230498176924
C         3.79669955157925    5.70972899705881    1.56065273541243
C         2.55291139974565    4.88072258045267    1.83340631411491
H         8.33557394780364    5.55587942177838    3.93112783079237
H         9.59206439253754    4.10279019222697    2.05698736841118
H         8.53205867771271    1.62497848511884    2.09744318645782
H         6.64860027673421    1.56105413601957    3.99346236047474
H         6.53686702800353    3.98811981399492    5.13392264239658
H         9.13401718991533    8.14224274688628   -1.10531661839015
H        10.29100101715546    6.72444836782740   -2.74329466730734
H         9.88736298420553    4.30504370453940   -2.78032030414046
H         6.76393359268400    6.73169018033319    1.47332423888583
H         9.07201784877040    7.50954765913292    2.06919685371128
H         8.84417538039037    8.93248561967050    1.04893927471108
H         7.81000296497421    8.68510406468483    2.45574720151975
H         5.78751548193569    8.91233355061622    0.86299138993928
H         6.84694705843364    9.03222554164098   -0.54621980697194
H         5.61291096779511    7.77131439432555   -0.47462281336405
H         7.49207613435905    2.60030861786584   -0.41128179298874
H         6.71959023100228    2.92429604221266   -2.77273033849827
H         8.35033187343213    2.59572163300828   -3.35587430492613
H         7.43814264655225    1.32688895441664   -2.54055764466847
H         9.31665964821422    1.01957195601898   -0.82339520538834
H        10.24474313090089    2.23771588680852   -1.69698844508759
H         9.95144575389604    2.43144507900882    0.03107574684960
H         3.48576183540756    3.14043634707034   -0.24828819507379
H         5.17191391506141    3.38293858707338   -0.78345554554400
H         3.65809085069200    0.71791713464947   -0.70260280860430
H         4.03993288914747    1.62626381174873   -2.17443133836189
H         5.33691610461463    0.90350313127001   -1.20713721866611
H         3.55748922456062    6.77548332328662    1.53919464938228
H         4.28115285698117    5.42511459919823    0.61932462205569
H         2.06939717442865    5.23057972438402    2.74316766503215
H         1.84794170309364    4.96147345177215    1.00685804098743
H         2.82568437606843    3.83339701607952    1.97506505698621

