33
CSD_code = RUNJEQ | q = 0 | S = 0 | Stoichiometry = C11H15N5NiO | MND = 4
C         5.33099014828583    4.24662639891828    3.22400187828619
H         5.78913761742966    3.40338883344537    3.74854069970722
H         5.70262083624367    5.18034719804750    3.67057038787058
C         5.71100379172537    4.15924851676096    1.74716105833920
H         5.46470050674834    5.09686140877837    1.23183418252343
H         6.79188100449670    3.99515035871035    1.64121492552140
C         5.44510110670368    2.45966810934535    0.13038627099728
H         6.43330075400651    2.75755530086093   -0.23196444215869
C         4.80660307756003    1.41311473426852   -0.58059836713925
C         5.45851289189639    0.81408602740575   -1.67594053987144
H         6.44267594592897    1.17170285756510   -1.94721858102108
C         4.87026131549960   -0.19548232151905   -2.38617039084017
H         5.37932284494030   -0.64703733202227   -3.22372584047852
C         3.59446142668286   -0.64309881146771   -2.01809950625284
H         3.13046651146712   -1.44088375845528   -2.57990176384385
C         2.93070855903063   -0.08604357345922   -0.96092651363249
H         1.94831332295977   -0.42383223687209   -0.66913831830626
C         3.50577300523982    0.96307952846368   -0.19712983431932
C         3.22279482594236    5.40519465298282    3.02956612403369
H         3.41839704836536    5.66637180469320    1.99082368367634
H         3.58619457067070    6.21517457272926    3.67565318857525
H         2.14658596115199    5.30244357023718    3.15795458699679
C         3.56266360253050    3.83338903721690    4.77880883560586
H         3.99954351747661    2.87595994182770    5.05809762378138
H         2.48439946532249    3.76517625898958    4.90465309357542
H         3.95720335484266    4.61637143645842    5.43825339010318
N         3.87149686233524    4.13626340859007    3.37815738196156
N         4.95015435236714    3.07518310806781    1.15333020709133
N         1.69132683224011    2.55557719764716    2.82577323073194
N         0.77392367501332    1.83584011392745    2.67208755553324
N        -0.18549036397786    1.23364466125077    2.66589124626576
O         2.82671337175982    1.44026355506160    0.78363852044360
Ni        3.29915825711724    2.74089544154008    1.98681602624116

