33
CSD_code = RUNJOA | q = 0 | S = 0 | Stoichiometry = C11H15N5OPt | MND = 4
C         6.30625343798001    4.41546508633850   11.94250675134015
H         5.94309915976457    5.35970244009950   12.37110767977128
H         5.85301134786987    3.58569347910598   12.49287275356812
C         5.89510947976599    4.29534933199861   10.47280593477381
H         4.80992364879508    4.14466560113464   10.39918072837573
H         6.13601004508860    5.21872010537251    9.92940258486285
C         6.13868485949280    2.56143387019520    8.86436643859026
H         5.15704246122866    2.86290376676025    8.48969757265233
C         6.76752362820077    1.49849521605634    8.16429477153778
C         6.05849329254429    0.92656935289188    7.08557438981890
H         5.07884515019730    1.32370022160303    6.85515124840852
C         6.57097298824403   -0.09746529291015    6.33958258390811
H         6.00705578398021   -0.51635561415619    5.52045375317714
C         7.84071515515212   -0.59915533741966    6.64967983569360
H         8.25303720139002   -1.40814596898693    6.06455125087645
C         8.56015367906264   -0.07349652769122    7.68537539153901
H         9.54028672759078   -0.44861240406088    7.93727680018373
C         8.06618681800905    0.98935187810573    8.48677426251607
C         8.10151928100458    4.00547112227246   13.48543369389045
H         7.65300330900344    3.05647225156941   13.77766133988774
H         7.74083539223728    4.79779400126287   14.15134510421298
H         9.18163947882577    3.91291098211976   13.58168532206692
C         8.43101866447846    5.55374732990680   11.70333508835795
H         8.21127263157393    5.79694108444997   10.66403962738160
H         9.50833375689074    5.42869170055204   11.80683662160176
H         8.10279270834728    6.38359546852304   12.34137187991111
N         7.76844585099671    4.30586819443191   12.09102003996142
N         6.62256007037638    3.18942001271637    9.88584384079262
N        10.07175839021978    2.54437545663162   11.65018708830324
N        10.93728311138953    1.78081421758187   11.41795881338787
N        11.85687959285927    1.12540987038498   11.34155168379078
O         8.84002674367686    1.40334981742290    9.43167867633348
Pt        8.34672615375828    2.82011928572613   10.74289644852141

