46
CSD_code = RUNKEQ | q = 0 | S = 0 | Stoichiometry = C18H25O2Re | MND = 10
Re        2.33564876002619    1.60716690638986    2.60163217558659
C         2.77466504063232    3.76644431165884    2.10187557590387
C         3.88610853574157    3.46072700138036    2.88795781581231
C         5.23955818131046    3.13784014832902    2.29189657101837
C         5.83618684438050    4.34863131559091    1.57177020775936
C         5.11136730921216    1.93874391912738    1.34878492016110
O         5.58458433290012    1.92490243324930    0.23107837286209
C         4.33652163953160    0.81007199597605    1.88332165280047
C         4.26953494014962    0.44583450986486    3.24691678012266
C         4.07148146241665   -0.98575142897662    3.66453429711833
C         5.39430946944274   -1.74866430907714    3.92519181345590
C         6.19831418936111   -1.08130879361930    5.04250716139649
C         5.02882879072648   -3.17149561316510    4.35855780979999
C         6.23500708471516   -1.81010280731763    2.64970761946785
C         2.15212308142595    1.73247572988013    4.50389099086498
O         2.02473508930746    1.76161402521626    5.65049755679110
C         1.53492900407231    0.79350959201062    0.36079958266963
C         1.24568203300372   -0.12172474079815    1.41611022954627
C         0.30166031112069    0.48679842782946    2.27983824580168
C         0.09089653314932    1.81666081127841    1.81056067757613
C         0.81737572769749    1.96233999535061    0.59046332352678
H         2.02386494029160    4.44777427112104    2.48643735346730
H         2.90122957563515    3.78301535116498    1.02358070494843
H         3.91593737060537    3.85255736901898    3.90291600495809
H         5.92434695039688    2.84006282155050    3.09416374928020
H         6.80734009179745    4.08674023689256    1.16003212229099
H         5.95143744871453    5.18068139821101    2.26147477421097
H         5.19317296041875    4.65730976020670    0.75225813086945
H         4.18482714057421    0.01683883996297    1.15234790494224
H         4.85807551764411    1.01996828143200    3.96056374587744
H         3.51206163320969   -1.52487366940963    2.89854275385437
H         3.48560445217093   -1.00296813644390    4.58631591288204
H         7.02314579358827   -1.72448562549122    5.34086022014564
H         5.57158370175096   -0.90219489893969    5.91273626357824
H         6.61699736417011   -0.13365931637126    4.71471172268043
H         5.92821375078679   -3.75781813866410    4.53162356999291
H         4.44100476169709   -3.67078040815834    3.59165997427738
H         4.44896977079670   -3.15430250021101    5.27824015513320
H         7.15137212486304   -2.36694334098581    2.83181428498789
H         6.50415946735820   -0.81308627798275    2.31034298751775
H         5.68899347137694   -2.30949323731864    1.85244418570973
H         2.14155306364042    0.58209496318554   -0.50504993281363
H         1.52412227803027   -1.16535241590653    1.43096529890454
H        -0.23871428515341    0.00291187427228    3.07957847325934
H        -0.66972388401061    2.49327444726369    2.16836358832200
H         0.77830617932353    2.82331492142349   -0.05681732931984

