46
CSD_code = RUNKIU | q = 0 | S = 0 | Stoichiometry = C18H25O2Re | MND = 10
Re        0.16873741822855    3.37822661285181    2.23307701252116
C         0.43150925043855    1.83695389476555    0.53837575462629
C         1.12886830448097    1.39252989355300    1.67029319532714
C         2.63613142360760    1.40940126054473    1.79627057467531
C         3.26418959739786    0.03575833720629    1.58174515643739
C         2.87834869065401    1.93615524918570    3.20735985836075
O         3.56144697721870    1.38315630347228    4.03615615114475
C         2.09517397987269    3.16130625140472    3.51622136825020
C         2.28786183718091    4.36754295937938    2.80685619356794
C         2.17939934245795    5.70534360013987    3.48475380319954
C         3.53278190779484    6.24923250707012    4.00751901951664
C         3.25967693848099    7.60623783515664    4.66333769154876
C         4.12958742274760    5.29879344756467    5.04531382455869
C         4.51996784084340    6.44282023741163    2.85540942586254
C         0.64511050258807    4.59762636875656    0.83571489939351
O         0.93553809541156    5.35428792588764    0.01393630266131
C        -1.34921644869535    2.27589636745452    3.73801471272442
C        -2.06919592432030    2.62113686057238    2.56667903422499
C        -2.11960590964259    4.03636098210832    2.48094224050108
C        -1.39856112050551    4.56150460688160    3.58698673851821
C        -0.95352716628309    3.46207546966577    4.37115667370209
H         0.99085740654607    2.15951440700723   -0.33344829664861
H        -0.52797998184474    1.38928378038443    0.30370713019697
H         0.65952528108060    0.63477260159048    2.29614274462555
H         3.04530016897325    2.13237640913346    1.08091558699415
H         3.06626811206269   -0.31752191707180    0.57327752242977
H         2.85882636751933   -0.67911503488449    2.29370485072859
H         4.33836769435192    0.09255017482033    1.73685467599907
H         1.86432722314249    3.25618682392427    4.57554769359735
H         2.98810393170872    4.35309152037747    1.97333446980279
H         1.48700858483199    5.63727359904257    4.32566305834661
H         1.78041845707760    6.43085733514746    2.77265782882230
H         4.17934662215772    8.02456088674447    5.06538229483620
H         2.54801078810117    7.50486168061672    5.47969206239704
H         2.85287585117122    8.30745452180896    3.93853705359417
H         5.06704882195832    5.70037224515936    5.42309134387271
H         4.32775670824741    4.32106970031268    4.61442314887418
H         3.45237863606913    5.17400178699752    5.88731430068084
H         5.39208381042853    6.99236531158643    3.20224295579903
H         4.06083969086374    7.00483518755156    2.04580423676539
H         4.86078423639595    5.48753939146231    2.46603234129336
H        -1.23600660964063    1.27981316959358    4.13670574611161
H        -2.60876381242738    1.93479079889075    1.93143067591673
H        -2.68880470560767    4.60907308236288    1.76563949870532
H        -1.35772828630112    5.60074286100812    3.87459488698127
H        -0.47396795682569    3.53470270539718    5.33523255795275

