58
CSD_code = RUNMIX | q = 0 | S = 0 | Stoichiometry = C23H31IN2Ru | MND = 9
I         1.63615099274458    1.90372493656125   17.88092049173520
Ru        0.15723778668417    1.62561291141068   15.62924431969782
N         2.44206036095244    0.96759563200483   13.70192265012375
N         1.54114712850488   -0.73994703632855   14.70115166447436
C         3.23611827037824    2.62679205247713   12.12563525799095
H         3.13268263005690    1.91969469784713   11.31579518194652
C         3.69049460908780    3.90629276469834   11.86109710268753
H         3.93664849190422    4.18295123059857   10.84621082987623
C         3.82849827152526    4.82815238775400   12.88468837569976
H         4.18108078810796    5.82599238190839   12.67165140779809
C         3.52751478227643    4.45500898846667   14.18484937793112
H         3.65726849751995    5.15655301161727   14.99521797440913
C         3.07553973949540    3.17878401428161   14.45963587075914
H         2.87434595555675    2.87983704325771   15.47564944330749
C         2.90438450609401    2.25772636759386   13.42865141803417
C         1.54629946506687    0.59153423960209   14.64809916697569
C         2.54749008515446   -1.36110430694008   13.86118533038996
H         2.11878698660881   -2.17090778471124   13.26730941848240
H         3.36344307042116   -1.76514888135719   14.47169055029465
C         3.00318609886764   -0.18316215537765   12.99847876374882
H         4.08958141154691   -0.09329194462155   12.93169469782132
H         2.59201433287484   -0.25050005236653   11.98395979177541
C         0.75323146452813   -1.42156642609200   15.71951865119363
C         0.07271438157105   -2.65032280423440   15.10572153080986
H        -0.47345419765976   -2.37210410882057   14.20639309278539
H        -0.62993009501712   -3.06726625170475   15.82204917922844
H         0.79919748315247   -3.42083727421350   14.85491458659512
C         1.67491784765969   -1.85655913929251   16.86391706913752
H         2.41503030175301   -2.57482002807711   16.51648030921534
H         1.09017598349637   -2.32282982089739   17.65142341934691
H         2.18673019207510   -0.99209673274369   17.27764831132610
C        -0.28114198887437   -0.38321991969329   16.17934120648724
H        -0.42862357834872   -0.47869782523332   17.26053099643065
H        -1.24000474938997   -0.61809100501023   15.69959285940925
C        -0.40760104525142    2.18502182303890   12.27391010616428
H        -0.43913850180578    1.11295018045495   12.08012239498738
H         0.55828095223098    2.57497169467967   11.95814904303525
H        -1.18093974992104    2.65969862044555   11.66567426460024
C        -0.66263248181436    2.47902537775089   13.72552664409927
C        -0.05840169013209    3.59964227161837   14.34980817730409
H         0.62574444759022    4.22537896082528   13.78927231812904
C        -0.36401653414744    3.89888280792907   15.67519525507328
H         0.10647338049852    4.75383569025200   16.15283936290469
C        -1.37716402634089    3.19110479472097   16.38845790359680
C        -2.04790642429118    2.15543531879556   15.73295508797407
H        -2.89156667591424    1.66480714179046   16.20476246408907
C        -1.67071919903738    1.77004857666493   14.42147567628620
H        -2.24554056806631    1.01097481860789   13.89819041841534
C        -1.79305656471986    3.68805189345749   17.75540965459112
H        -0.92789033638839    4.18135361694251   18.21461974012978
C        -2.24359912957593    2.56924450898701   18.69357466419027
H        -3.19736371359337    2.14691447323804   18.38271715107016
H        -2.36122382487935    2.96190658805080   19.70062214818472
H        -1.49981337945184    1.77558905122971   18.72435385513106
C        -2.90544716234798    4.72839586734631   17.57978940637968
H        -2.57230517958823    5.55019218801983   16.94779681705884
H        -3.19462571252690    5.13236747520251   18.54701863751330
H        -3.78186418690611    4.27422709759284   17.11918851115642

