69
CSD_code = RUNNEV | q = 0 | S = 0 | Stoichiometry = C26H35ClN2O3RuS | MND = 9
Ru        2.57427024920069    0.71751970314758    2.53768556711022
S         4.37854112868362   -1.58042109538321    3.63440168180084
Cl        4.61988679906588    1.78823338206698    2.46266612964462
O         3.86826603890464   -0.94364575528772    2.38040007780829
O         4.75365339246168   -0.61322344161283    4.63699154613620
O         5.30901940650826   -2.63284751772518    3.34432195441571
N         2.79350308984868    1.67825037265151    5.44356993859797
N         2.08245729437452   -0.34145935202479    5.26065371058236
C         1.02306075828425   -1.97666831902497    1.05061596567847
H         0.36916659881724   -2.45392895457535    1.77814405404632
H         2.02204200964648   -2.40449668212923    1.15075671613966
H         0.66125878199012   -2.19299337933595    0.04480410959987
C         1.09592992476601   -0.49835626727261    1.27480846510244
C         1.87358435783400    0.30647567932383    0.38887662086032
H         2.37128699973734   -0.17038961851670   -0.44734441521737
C         1.95299806778896    1.68383137070972    0.55130937943377
H         2.51202694702552    2.27745928752591   -0.16069788724861
C         1.29942989158397    2.33356966578753    1.64315753252728
C         0.51479223369939    1.53000898256191    2.50891896943539
H        -0.09233696284330    2.01089856950332    3.27298746353857
C         0.37249840328694    0.12785414113377    2.29408069205967
H        -0.30912747334551   -0.44615991693370    2.91146149828063
C         1.27360755328611    3.84022560419682    1.77322497874678
H         1.07636338825680    4.08080253717764    2.82458585717550
C         0.11517624941662    4.38691981997359    0.92799244038042
H         0.26067784775564    4.13538034220243   -0.12049568211469
H         0.06832919190608    5.46908161227732    1.01910991750744
H        -0.83593199652546    3.96931471451698    1.25303600252334
C         2.59646615455845    4.49266016208649    1.36912039238512
H         3.43862505037472    3.93308636092018    1.77587627574792
H         2.63239053070972    5.51222870543281    1.74378252217464
H         2.69513382281849    4.53197809213329    0.28716000164507
C         2.56128295092615    4.09542048604970    5.77744016777217
H         1.51886138837453    3.99948746597083    5.48098412098771
H         2.93651375820231    5.04860785992386    5.41731136502159
H         2.61532203224872    4.09967057618490    6.86345327954999
C         4.83153888351185    2.96010123905173    5.69826710656355
H         4.85398763653443    2.89249411106069    6.78387352861341
H         5.34541448360583    3.86285559400801    5.38450678496266
H         5.34779858573820    2.10165729662906    5.27664439334603
C         3.39889576550318    2.97068683973351    5.17524164813023
H         3.43338454604932    3.07620538240367    4.08593634855924
C         2.44825499831174    1.25721786194411    6.70114733291336
H         2.55046567737625    1.87732745384607    7.56632523563654
C         1.99313243141583   -0.00670787181101    6.59139698978307
H         1.64109876084794   -0.69951883936095    7.32737882616407
C         2.59863085194049    0.69293564704353    4.55196218889917
C         1.84668220528512   -1.65203362455236    4.80202627171920
C         0.63754245044496   -2.28168719452310    5.07632507094189
H        -0.14198737063434   -1.73887304976408    5.59276447917147
C         0.42822554100384   -3.59378026705961    4.68638969850377
H        -0.52524926355674   -4.04346148422371    4.91165245884818
C         1.41569727316967   -4.32106936306070    4.02780656191130
C         2.62182571101750   -3.67194809019795    3.77041416498008
H         3.44598810010048   -4.16068475838973    3.27591721489433
C         2.84148764442936   -2.36909621954010    4.15663368266719
C         1.23964541959579   -5.76574408631952    3.59311564882030
C         1.41809820762404   -5.85259542118934    2.07091720327205
H         0.66470203049563   -5.25137637016380    1.56563043028745
H         1.31165485438939   -6.88401947406049    1.74235750495172
H         2.39908317567953   -5.49772696084514    1.76985485767083
C         2.30837193266631   -6.61940314163908    4.28948021949918
H         3.30852024584565   -6.28868164856499    4.02672300534287
H         2.20230367445935   -7.66160690250471    3.99652887793772
H         2.19959502576695   -6.55148603926846    5.36979299753096
C        -0.13847853778154   -6.32869573564478    3.95189551476856
H        -0.29942646237843   -6.31506769550268    5.02725195614904
H        -0.20403282819971   -7.36155677294234    3.61704890731498
H        -0.93287751004564   -5.76833560844507    3.46384147960688

