81
CSD_code = RUNNIX | q = 0 | S = 0 | Stoichiometry = C40H36NPPtS2 | MND = 4
Pt        3.52176694783063    2.00541617789900    5.93349229057657
S         4.55383788350779    3.86191994928306    4.90870161195945
S         1.79818867155015    2.09653146208316    4.28753224552736
P         1.99104767765741    0.45214111771311    6.73579134598829
N         5.56234263845461    2.04196740960331    8.24499814731547
C         4.83105764554692    1.97873252420534    7.33145781238551
C         6.50879986899590    2.15194099186040    9.20497168869581
C         7.26713814570595    3.31715395461686    9.29978863406324
C         8.24384543819129    3.40943087051534   10.27063032278329
C         8.47818220723320    2.36437446245297   11.15766330642842
C         7.70217309937382    1.21225488181013   11.05428422497659
C         6.72250133447130    1.09587793198893   10.09076574250982
C         9.54624349235812    2.45925265997824   12.20202350351087
C         6.22384260712706    3.82536312297751    5.45316156794834
C         6.85709351136392    5.01642439138060    5.79418615843732
C         8.17066673719346    5.01019019264451    6.22341847198284
C         8.88492536037572    3.82314206127221    6.32903545057716
C         8.25452350046011    2.63944666670594    5.96046688372409
C         6.94976630443594    2.63732222081436    5.51142651968545
C        10.29366909830614    3.80110041100729    6.84129150423752
C         2.38989452340733    0.84307514294874    3.22839193581573
C         1.55892380580214    0.33960571358620    2.23032980181305
C         2.00126743159110   -0.67311984143575    1.40676303546210
C         3.27495208257113   -1.21421090669963    1.54902845750782
C         4.10444801601989   -0.69623336244420    2.53461203266619
C         3.67238723432248    0.31866585619643    3.36422809796700
C         3.74497650572852   -2.31207052413196    0.64203754650535
C         0.57003382392458    1.38986796467984    7.35715980465243
C        -0.51699426041610    0.73884648898910    7.93315642089560
C        -1.56962003825249    1.47965006645227    8.43730595116503
C        -1.53481594186652    2.86464937482310    8.38277145309762
C        -0.44273693671484    3.51401871826027    7.83005142906284
C         0.61094458074666    2.77843206219880    7.31971727650906
C         1.35318636916812   -0.82272904550325    5.61999488089746
C         0.06863301380988   -0.78965198962094    5.09256170298188
C        -0.31558126691498   -1.74449188464736    4.16825861883182
C         0.57731185606943   -2.72022979792544    3.75726712939596
C         1.86629460990053   -2.74166726815263    4.26416674343278
C         2.25713443964244   -1.79196071995977    5.18811463373266
C         2.40002202751142   -0.46438859354899    8.26884818385128
C         2.28470428980497   -1.83811759950053    8.43568563935907
C         2.62850922885390   -2.41809591044798    9.64567703982060
C         3.08327284203913   -1.63641533419483   10.69348171283493
C         3.18782816719401   -0.26223037110663   10.53656832428863
C         2.84860250582001    0.31824029595299    9.33090766824251
H         7.08784064603164    4.12534085275052    8.60811895227340
H         8.83464969150363    4.31094793489469   10.33922991190413
H         7.87304270588565    0.39536226143014   11.74032532367133
H         6.12165687210297    0.20229989738134   10.00798023801676
H        10.34305398621636    1.74649888005941   11.99015546581173
H         9.97558013013137    3.45704576894280   12.23238405111716
H         9.14229072062771    2.22060832168720   13.18448561694411
H         6.30536776518094    5.94225458593884    5.72807985090235
H         8.64489629833297    5.94442621560324    6.49164906672939
H         8.79920732321596    1.70712422805910    6.02019296083897
H         6.48202994542046    1.70921517570880    5.20373096394409
H        10.33741714683660    3.27694211606029    7.79709039600136
H        10.94709705707348    3.27809686384721    6.14451827125531
H        10.67245208488232    4.81038682482997    6.98248674031712
H         0.56635242406128    0.74953215164366    2.11647669792365
H         1.34380585035302   -1.05797777645176    0.63933441539295
H         5.10317058647860   -1.09323958148862    2.65641828085441
H         4.34141936892789    0.72821180900857    4.12853962031718
H         4.53894310907339   -2.89040093955425    1.11031140873661
H         2.92411505359136   -2.98004647880500    0.38713949848485
H         4.13579210669933   -1.89259442763700   -0.28636391253271
H        -0.53085548978112   -0.34211642120149    7.98364407041658
H        -2.41931151260238    0.97707948123256    8.87632366915305
H        -2.36107843933500    3.43826617524055    8.77630890228832
H        -0.41391553886927    4.59278309158878    7.79511218083181
H         1.47231496000863    3.27610453599441    6.87518190788806
H        -0.61677213516731   -0.00864164580697    5.38889113749625
H        -1.31404356058807   -1.71862405748076    3.75711607753476
H         0.27294807706544   -3.45711265591676    3.02898967754150
H         2.56947644951255   -3.48911563796264    3.92821365197185
H         3.26790648577515   -1.78348651703496    5.57794760626383
H         1.92306869402815   -2.45624580469790    7.62639655713467
H         2.53790500460321   -3.48749435784035    9.76972523777841
H         3.35239175250995   -2.09552522056476   11.63328891318292
H         3.53343459155814    0.35306754904601   11.35479122439239
H         2.92185870934758    1.39100480500152    9.19531241033035

