131
CSD_code = RUNNOD | q = 0 | S = 0 | Stoichiometry = C66H58N2P2PtS2 | MND = 4
Pt       -0.92419667454376    1.11093774376198    6.67095559745158
S        -3.18016486706071   -0.91206543050288   10.02655339304333
S         1.07248323921425    2.29222512668749    5.73132465444713
P        -1.50359863422537    3.22284440878431    7.31331045247691
P        -0.08379995166329   -0.89227837252409    5.95189804427074
N        -3.69756139992118    0.31023699459927    7.55923409520574
N        -0.65671639526967   -0.64343575568783    8.94218836767630
C        -4.29377413157832    0.96702217708054    6.50624978984870
C        -3.82751010962269    0.83868623192627    5.19481777397363
C        -4.46831016820804    1.49475093085952    4.16131444384089
C        -5.56675807721915    2.30903069595169    4.40275041024097
C        -6.03867743171700    2.41603213161598    5.70914970240668
C        -5.42934120527272    1.74350417336367    6.74597303881565
C        -6.24924559402287    3.03695794869935    3.28426294453610
C         0.10792659388193   -1.00102430145842   10.02633431879471
C         1.07355080250874   -2.00013450391074    9.90070216496964
C         1.90702550154058   -2.29537577797392   10.95695851577792
C         1.83020685772036   -1.59190929566267   12.15441452459915
C         0.89848418575055   -0.56797474510499   12.25784530103967
C         0.04343167756364   -0.27331950212217   11.21638030613911
C         2.74744766608786   -1.92469985133333   13.29194155577043
C        -2.36162205684843   -2.10702391122496   11.06225758429504
C        -2.36341257112159   -1.94095649333533   12.43922713006581
C        -1.72191018858440   -2.86559654522020   13.23867348801843
C        -1.07444008724563   -3.96405755365198   12.68377775549961
C        -1.11331189468364   -4.13241997309068   11.30602869498101
C        -1.75786263541029   -3.21817528353684   10.49521524967859
C        -0.36862894920857   -4.95008960882550   13.56283472086112
C         0.51981094396054    2.72235555018132    4.13893936386119
C         1.34134170976668    3.47307641624732    3.30130469698886
C         0.92527500796088    3.79450901305478    2.02609120779222
C        -0.31111278432623    3.38057116883643    1.54626579494070
C        -1.12750879516847    2.63628263849701    2.38909580274608
C        -0.72389350275863    2.31344040856051    3.66538145589955
C        -0.76934847107982    3.73197313252783    0.16151250347599
C        -3.05105305636318    3.59284054471797    8.21699241405758
C        -3.26566372651269    2.84552490106214    9.37235701032304
C        -4.39559231967034    3.04460110951725   10.13905201725268
C        -5.32112958458803    4.00604451002858    9.76371395112837
C        -5.10200916558815    4.76896063717325    8.62989895587891
C        -3.97204720258298    4.56655008664322    7.85584341496042
C        -1.43804558126464    4.47181893915209    6.00410676199823
C        -2.43826185016294    4.43773334962060    5.03446608795540
C        -2.38000084919917    5.29122309911375    3.94914226078157
C        -1.31350300708926    6.16365170537585    3.81146689920193
C        -0.30630929068603    6.18295625139861    4.76193698161090
C        -0.36262862643370    5.33951709873674    5.85665972311765
C        -0.34815721245563    3.74605318514381    8.61095237362833
C         0.47883834090581    2.77834226415984    9.16600235376944
C         1.32026052965608    3.09682092306159   10.21549188131593
C         1.33555094645894    4.38973383364249   10.71236194058135
C         0.50382002783206    5.35696113225884   10.16795304837463
C        -0.34626950050972    5.03878900897051    9.12507146484075
C         1.68741567166357   -1.12410367732118    6.27833789022602
C         2.27115247316557   -0.43556436072356    7.33261460745585
C         3.61141030235810   -0.61062686182301    7.62411798563865
C         4.37740155661074   -1.47481359285437    6.86044639941596
C         3.80238067631026   -2.15950722402646    5.80086501305877
C         2.46235377554092   -1.98808894575070    5.50702270516146
C        -0.80771524360339   -2.50205407433180    6.44307354399450
C        -0.02443308621990   -3.59716648259725    6.79081733322105
C        -0.61464702433950   -4.79211425719506    7.16447164917680
C        -1.99367846780913   -4.91257167380468    7.19558933820792
C        -2.78300289789353   -3.82724725376213    6.85143244659591
C        -2.19421130046098   -2.63205121198926    6.48120515955800
C        -0.14544480724180   -0.98664844768533    4.12832190455934
C         0.83655020466228   -0.32063598724710    3.39754465234323
C         0.75898368973531   -0.25816084951647    2.01979695535820
C        -0.30077529142916   -0.85382725009887    1.35615746197615
C        -1.27781552061349   -1.52076896616946    2.07565907032926
C        -1.20524075477313   -1.58600472141416    3.45588522088205
C        -2.43890697891983    0.23675032648613    7.69266189478215
C        -1.90968620410460   -0.47044568710592    8.85843304514656
H        -2.99124032918648    0.18027643113303    4.98340309065480
H        -4.10038259956643    1.37742964868030    3.15168525556861
H        -6.90048178893111    3.03657088689001    5.91126425743541
H        -5.79494188682975    1.83056806861962    7.75730802400709
H        -6.53513208573323    4.04014129502846    3.59536622213672
H        -5.59993737472063    3.10871450096375    2.41469539787707
H        -7.15644184814184    2.50858622839385    2.98854104098178
H         1.13226474357060   -2.55589927160099    8.97832030485394
H         2.63553405942831   -3.08709611601992   10.85265931829179
H         0.83253703626972    0.00488574283905   13.17230168864227
H        -0.67163791844502    0.53238921808774   11.30692396151981
H         2.81770087297407   -3.00287915415013   13.42386660103382
H         3.75127804102866   -1.54784982239381   13.09265126988760
H         2.39419154934867   -1.47890315518362   14.21865910235659
H        -2.85479905331820   -1.08364600193471   12.87308725652499
H        -1.71277493846839   -2.72834666752855   14.31035422240006
H        -0.62921754820259   -4.98678064264763   10.85545725314094
H        -1.77919852457259   -3.35646748186204    9.42486084284226
H        -1.09036171904095   -5.61951059504245   14.03185962925433
H         0.33026622651167   -5.55184998542021   12.98744548877451
H         0.17380936238789   -4.43698025320665   14.35415218465893
H         2.30677371689121    3.79511534044935    3.66356193935245
H         1.57634919596673    4.37762075355895    1.38841645170032
H        -2.09387307932778    2.30371074770778    2.03555046630804
H        -1.37152700983395    1.73363499473764    4.32018718141367
H         0.04097822470861    4.16968824053267   -0.41682628703631
H        -1.13166735629906    2.84644527240282   -0.35968339471225
H        -1.58792032483617    4.45178216596593    0.20322722563939
H        -2.53364298271580    2.10288318278342    9.66282377743128
H        -4.55811614212912    2.44790426048197   11.02426304449938
H        -6.21005944704104    4.16212702137364   10.35725794889875
H        -5.81588263348887    5.52756725267667    8.34272051892816
H        -3.81042224866061    5.17042276747324    6.97476940629953
H        -3.24933392210874    3.72749825677444    5.13091279567385
H        -3.15838170716879    5.26131448250098    3.20080331266939
H        -1.25856020734117    6.81916728767127    2.95486243614915
H         0.53522606183069    6.84968335410176    4.64354944736814
H         0.43943774641368    5.33288839711953    6.58088530992221
H         0.44687661938173    1.77258020345854    8.75887250334379
H         1.95702666382116    2.33769166085726   10.64634199426257
H         1.99360221678466    4.64659622144975   11.52976974076972
H         0.51505084691819    6.36228898681000   10.56402578193432
H        -1.00986047147107    5.78526264425336    8.70880295781398
H         1.66838622697049    0.24639675572438    7.91217693021458
H         4.05789252602700   -0.06962091198454    8.44511217787052
H         5.42553192992635   -1.61230325936270    7.08338260217350
H         4.40153511516643   -2.82831713307103    5.19941062096550
H         2.01735284460653   -2.51634833258894    4.67360640316384
H         1.05307289346438   -3.52282113317771    6.77106904402005
H         0.00809393558260   -5.63247763480694    7.43606944660697
H        -2.45147382291479   -5.84389684954796    7.49461898905705
H        -3.85976732648986   -3.90623587018334    6.88152528623519
H        -2.82189088910032   -1.78749277897885    6.23704114048406
H         1.65624030051801    0.15694526989049    3.91564806453912
H         1.52042135995856    0.26986152192993    1.46542543756809
H        -0.36537945194459   -0.79781067049485    0.27941814317496
H        -2.10464134399666   -1.98993008897803    1.56164307571036
H        -1.97134958823337   -2.11284662003332    4.00810700433299

