51
CSD_code = RUNVEC | q = 0 | S = 0 | Stoichiometry = C21H19ClN4O4SZn | MND = 5
Zn       -2.59602800199274    8.87019053980295    3.09395476906624
Cl       -2.27929333722635   11.04541161069431    3.26657749105130
O        -1.71479425817843    8.34406542053748    1.29028801818777
O         2.03303575531769    5.75479443301669   -3.83865950419859
O         2.02446188517068    3.83136276503243   -2.88275762148149
N        -3.30654451896846    8.49398640232588    5.11262073134961
N        -1.98122270622460    6.99041647404788    3.45608604648360
N        -1.37696554656097    6.38536295961228    2.44495189588575
N         1.73419240085016    5.00883078943156   -2.92934141007900
C        -3.01097445146377    7.25242994001847    5.51661239453777
C        -3.22703285822462    6.85691111309634    6.83884070131164
H        -2.94564112417481    5.86605098693169    7.15865599505712
C        -3.77969912540559    7.76199914565397    7.72650353654791
H        -3.95561492677343    7.47736571254877    8.75335694137682
C        -4.09296998714324    9.03918401316573    7.28400606675616
H        -4.52435460267231    9.77132834144347    7.94700488071730
C        -3.82447208271666    9.36020030908498    5.96200081188126
H        -4.02159704527777   10.34556417446847    5.56355943470817
C        -2.40880573140635    6.37795567394589    4.51353155113694
C        -1.23717572952654    7.18813503522247    1.39021231317861
C        -0.46405688460133    6.60458849663187    0.27008474128982
C        -0.09549979872575    7.42153555582366   -0.79860124560606
H        -0.38464485311386    8.46111219137022   -0.77956428198877
C         0.62874493521670    6.90320312344230   -1.85136275332752
H         0.92720854132931    7.51457617465152   -2.68938284881957
C         0.98221979305715    5.55797927188717   -1.83117909274710
C         0.62071222908498    4.73156164994227   -0.77086471931062
H         0.91377664858794    3.69286660322590   -0.79173214374953
C        -0.10308295064656    5.25706722283750    0.27821910685245
H        -0.40372666905120    4.64560191763929    1.11347675160191
C        -2.31351041742148    4.92710733762421    4.72128209609144
C        -3.40966805898717    4.20843264567170    5.19875598104350
H        -4.33521148123524    4.72417665924075    5.41139852831350
C        -3.32587170348846    2.83907703426232    5.36712935844835
H        -4.18183126918964    2.29068972642397    5.73228279596481
C        -2.15038845661936    2.17043463980081    5.06594179190080
H        -2.08677670069990    1.10113040945674    5.20187280435552
C        -1.06081378868802    2.87653726378980    4.58289744859618
H        -0.14481219879362    2.35734015167213    4.34279903778036
C        -1.14023100833240    4.24479586462278    4.40401768954460
H        -0.29459336051577    4.79762769829452    4.02713666657887
S        -4.74181925973602   10.43768958646604    1.80827803766259
O        -4.41626705496861    9.06100900654985    2.30306227878638
C        -3.73756162961525   10.66305217867275    0.30538149834770
H        -3.70875688384941    9.72313835312025   -0.23589495201976
H        -2.73680132365655   10.93694072592326    0.62318212639259
H        -4.16967569983412   11.45720806778082   -0.29275947655385
C        -6.31812093671154   10.12238432972764    0.90773462012799
H        -7.06264601777514    9.83242522810628    1.64104734572022
H        -6.17458027662096    9.31875523525963    0.19533170479844
H        -6.62841747180667   11.03310981004002    0.40902406040457

