74
CSD_code = RUPNUM | q = 0 | S = 0 | Stoichiometry = C38H33NOZr | MND = 12
Zr        2.14879407008532    9.91202851087827    3.41807509341074
O         2.31014595274669   10.49482635856347    1.63934426265278
N         3.84347589188167    8.75404013353035    3.72728973576088
C         4.26524683762445    8.21631458168469    2.51902311404528
H         4.35017168474217    7.12389508595476    2.48059440824853
C         4.61179839064737    8.92849370046563    1.43785467672144
H         4.88758255936327    8.42081627248941    0.52571738018791
C         4.67972217658352   10.43093095842965    1.43149443812960
H         4.68976924190004   10.76170813031641    2.48706547739728
C         3.33021206635777   11.00783689252361    0.84198278577715
C         4.25914270826198    8.06783015385598    4.85557001291204
C         3.48902470782971    8.05741399586143    6.02978859535795
H         2.52984584688035    8.56301838176344    6.04084212254681
C         3.92820497396278    7.39664234176557    7.16001374444963
H         3.31461046591590    7.40190305160825    8.05005436686399
C         5.13684599101891    6.71856457714795    7.16167816887076
H         5.47233723256825    6.20132948701032    8.04735612903138
C         5.90932452632844    6.71866683655057    6.01196879437064
H         6.85837779682721    6.20191845878303    5.99991228017671
C         5.48601203765192    7.38296111596879    4.87887077544080
H         6.11445055675124    7.40500461847178    3.99960940744315
C         5.97969845023032   10.83151662572923    0.77993288975136
C         6.28252345434878   10.52507585664484   -0.54175971621436
H         5.56304365301985   10.00810063961870   -1.15548445895547
C         7.50597114433094   10.87593448934929   -1.08630248235670
H         7.71576881160854   10.63825459556081   -2.11894471559213
C         8.45986869482481   11.51675570169846   -0.31603518167338
H         9.41389710990825   11.78810873458711   -0.74294142328140
C         8.18609123567081   11.79321192112154    1.01270485094308
H         8.92971162910360   12.27489188023811    1.63087059164860
C         6.96057146856271   11.44989153818256    1.55330879430526
H         6.76044612315861   11.66243737615337    2.59547502236577
C         3.12641679386033   10.54142461876691   -0.59901756006403
C         2.53981566533593    9.30353260103616   -0.82933450639448
H         2.24734459445806    8.70355685357898    0.02173847627585
C         2.32811986111572    8.85449480897660   -2.12073590244555
H         1.87252546771618    7.88872755928994   -2.28562731582636
C         2.69641451191032    9.64080589081582   -3.19906938508055
H         2.53021700597007    9.29255866006673   -4.20792657859584
C         3.27516144902614   10.87894314128101   -2.97676163111556
H         3.56226293732503   11.49978436104636   -3.81285487477455
C         3.48791967829998   11.32985692703143   -1.68570008046732
H         3.94445568171053   12.29530478678528   -1.52475445987172
C         3.20895544855762   12.53164274899747    0.85595977116186
C         1.92189189248172   13.03099431451420    0.66043068720246
H         1.10995806729037   12.32728604745004    0.52784112391912
C         1.68202544704005   14.39146249430686    0.63340414388259
H         0.67768575710390   14.75873176011504    0.47849993021019
C         2.72918735697575   15.28262339406749    0.80107599869159
H         2.54728739523689   16.34692127326064    0.78172392631506
C         4.01047906195061   14.79755300287694    0.98697831804678
H         4.83538681305866   15.48393145301495    1.11212730743433
C         4.25290923540356   13.43259009845466    1.01086958604898
H         5.26464872996294   13.08547238222849    1.13909369143030
C         0.20305928781626    8.67049027574222    4.39386404263035
H        -0.11155282119192    8.74827909567525    5.42893763961223
C        -0.32639521174597    9.41670973149897    3.31257702014401
H        -1.10945270591848   10.16383024981886    3.37630018144842
C         0.16807755759342    8.85952288822321    2.11747626341109
H        -0.12479636959697    9.15083224619082    1.11701089349790
C         1.02611641426319    7.79496576222111    2.45178765998512
H         1.48786129499007    7.10430007696677    1.75650264794271
C         1.04202766430893    7.66955674087727    3.85888688400974
H         1.49585694806474    6.85442055350765    4.41048480939215
C         0.98599751667345   11.66335008772878    4.94903418068213
H        -0.07121861475758   11.73346465506770    5.17147420723544
C         1.95142702057561   11.03471279450111    5.75748094327406
H         1.75642474686966   10.57073418152252    6.71552009845696
C         3.22619126702184   11.32518324804659    5.22726501799243
H         4.17621727573494   11.08498212945462    5.69158027719988
C         3.04367595737989   12.14310805298208    4.08832142622336
H         3.82263060385623   12.67370711616950    3.55514508158333
C         1.65428827746100   12.34324315788782    3.91295507269435
H         1.19980754770636   13.01958477540411    3.20050504578493

