88
CSD_code = RUPWAB | q = 0 | S = 0 | Stoichiometry = C36H46ClMnN2O2 | MND = 5
Mn        8.17040799604622    2.22998140360842    0.94256411107678
Cl        6.87800945172644    1.49940527948715    2.57043843779130
O         9.43128057852443    3.11047469329533    1.60920514100737
O         6.96344162426734    3.36149323869418    0.35794503088760
N         9.50593994367946    0.61282084778850    1.23782756459133
N         7.44357651884702    0.86928677956695   -0.28301428122276
C        10.43762501016631    3.06747524118780    2.43003786126620
C        11.00027092642543    4.22316384038696    3.03514885000508
C        12.05157502144413    4.04963072418218    3.90444369587953
H        12.48264225910235    4.91967576846155    4.36809744449334
C        12.59845563357510    2.79553838701100    4.23498243023739
C        12.04108219607059    1.68176368288236    3.66159212678811
H        12.41359871030112    0.69277706136771    3.87326133103546
C        10.96853292411427    1.78209639378084    2.75669799259365
C        10.40182871971303    0.61423824744023    2.19736116610962
H        10.74719573956208   -0.33213102949443    2.60909352036225
C         9.08344670905451   -0.55718905152448    0.64842002045838
C         9.71461783014063   -1.80234963973290    0.74407658327592
H        10.64336415542327   -1.90268615033945    1.28401135783458
C         9.15934623308677   -2.90931518365383    0.14256623496214
H         9.64678504117531   -3.86845955907900    0.22935769860303
C         7.96366610030679   -2.79964571228012   -0.55934517806711
H         7.51328874894804   -3.67871365812014   -0.99447393086995
C         7.35188447068842   -1.57423083613930   -0.71029351990924
H         6.41691559558338   -1.51913071508850   -1.24564984930213
C         7.92095077878330   -0.42571274603423   -0.15135322218374
C         6.55386009662152    1.13151581615954   -1.23109697815159
H         6.33860272024509    0.34756964571665   -1.95314594324757
C         5.84831236798230    2.32894745124630   -1.41633587192429
C         4.87864619506632    2.41052192826393   -2.44348460112305
H         4.72531318673478    1.52655487432149   -3.04127771470136
C         4.16117875915943    3.55133932348175   -2.65905867192404
C         4.41526502149504    4.66005189089679   -1.81882155490991
H         3.83992239722962    5.55296986314791   -1.99164863382705
C         5.33316243331119    4.65980208275889   -0.80370478237854
C         6.09020726283410    3.46632587317144   -0.57495458724615
C        10.41546624231202    5.59236154094826    2.71836805419434
C        11.12807176673722    6.72767586746498    3.46067544588696
H        12.17962843679606    6.78182711130526    3.18717681416493
H        11.04100222546627    6.60872517187678    4.53812707891251
H        10.66428705218562    7.67430570148053    3.19109066332011
C         8.93956120729647    5.60992111466887    3.14153957629760
H         8.85618386041815    5.43052816075235    4.21170646606544
H         8.36382215875724    4.84338116515865    2.62783925048206
H         8.49726881268407    6.57784328769779    2.91618365391102
C        10.55537179131704    5.85856174430086    1.21231004245628
H        11.60677939804584    5.85934297577201    0.92832739364204
H        10.12757136440563    6.82658511783451    0.96038643317341
H        10.04488785196788    5.09825718212203    0.62500336671441
C        13.76613944117830    2.73965303024006    5.20705228532794
C        13.33460631915534    3.35137287316053    6.54721804572342
H        12.47845710296094    2.81242349232012    6.94681670725501
H        13.05902414523208    4.39652194064285    6.43895400782606
H        14.14916681710343    3.28842990013883    7.26551248117695
C        14.94271796667072    3.53533997265048    4.62418818957062
H        15.23746160885874    3.11998911153015    3.66272203060433
H        15.79602880731313    3.48719881075123    5.29712375134425
H        14.68424465139506    4.58046348083323    4.47887303817828
C        14.24042916125349    1.30762148211371    5.46776972777940
H        14.58457461945210    0.83623311214460    4.55017115825738
H        13.44557593099790    0.70684773323757    5.90290848475752
H        15.07202233455440    1.32330027575167    6.16915293489597
C         5.56999442963565    5.86965648769818    0.08891475005479
C         4.67878153213738    7.06082636332627   -0.27789271171043
H         3.62532775785513    6.81144444976019   -0.17416451738829
H         4.87062576922094    7.40120020619783   -1.29341600457673
H         4.89350263273841    7.88648469931414    0.39762571605201
C         7.03154391753596    6.31334027862529   -0.05663854655866
H         7.70684966363860    5.51969639175315    0.24775558327643
H         7.22257183675911    7.18413736923291    0.56703324630078
H         7.24615345787731    6.57437976580069   -1.09205895376583
C         5.26894423702204    5.48542636728928    1.54486022290225
H         4.22250321821947    5.20546384736820    1.64808967759860
H         5.46916213607964    6.32795254314755    2.20370194707309
H         5.87550798795502    4.64438116200744    1.87042912024995
C         3.10582360017327    3.68836930674468   -3.74485643458447
C         3.51408773927995    4.81591374554858   -4.70358742381055
H         4.47904165562160    4.59381166110085   -5.15458006140341
H         3.59080543553593    5.76926914230559   -4.18830615936425
H         2.77689130602198    4.91752569607097   -5.49721427911934
C         2.93924601319624    2.40423787083982   -4.56197089572369
H         3.86628392972343    2.13705250154993   -5.06400439877186
H         2.17636719083481    2.55516751705003   -5.32311777721473
H         2.62376855244063    1.57780903008990   -3.92952110254471
C         1.75501212936040    4.01930128934597   -3.09507539895947
H         0.97970922851215    4.08322562706223   -3.85551149118833
H         1.78842323472795    4.96706354208965   -2.56554146488620
H         1.48002097593665    3.24249572495594   -2.38501900212545

