28
CSD_code = RUPWEF | q = -1 | S = 0 | Stoichiometry = C10H14Cl3Ru(1-) | MND = 9
Ru        7.67846857027745    1.90677728600376    1.20813770008474
Cl        6.82948973355388    3.84799526530955    2.24917273128263
Cl        8.48670116233463    3.29018652757753   -0.52416192175655
Cl        9.71297495799550    2.27307741964535    2.35240388593597
C         6.77170105607668    0.57237457948401   -0.41999624167201
C         7.87616018606584   -0.10435947989662    0.16017966081693
H         8.65908850177644   -0.49918515263363   -0.47706979935784
C         7.93726067546594   -0.28987611065447    1.55423367288586
H         8.77517273524737   -0.83484092375727    1.97956329304292
C         6.88894125111508    0.13649140032325    2.41086642249092
C         5.81762990219926    0.84033377464559    1.82056609493888
H         4.99565090437754    1.18595389860720    2.43841624074887
C         5.73295124468873    1.02359194785207    0.41765775300109
H         4.85918408093729    1.50066677890741   -0.01157385415699
C         6.72237550198816    0.80047213645399   -1.89942692710001
H         7.18307706268802   -0.02571346845688   -2.43938427092414
H         7.28660258931566    1.71332292589955   -2.11877859038255
H         5.69845204725302    0.93646164712408   -2.24350611343552
C         6.93762578411729   -0.14366283918392    3.89438398947699
H         7.83365098156431   -0.74466400987783    4.09415774125967
C         5.71214260068739   -0.94784347058619    4.34074870698040
H         5.79807855596121   -1.20365451590466    5.39517086963463
H         5.62561810306834   -1.86987907237484    3.76683336646663
H         4.80079052860765   -0.37024808876354    4.20441725365295
C         7.05974221193576    1.16377556429966    4.67924956408121
H         7.93328248671933    1.71619230681317    4.33324081243641
H         7.16845408648764    0.96219010192642    5.74384274828219
H         6.18623249749116    1.79336357121943    4.52555521128550

