79
CSD_code = RUPYAE | q = 0 | S = 0 | Stoichiometry = C31H41F5PRh | MND = 6
Rh        5.18718657772082   14.57447205339671    3.38712392213415
P         7.39339087534523   13.87148166005137    3.43552646436488
F         5.97446310431997   16.35130551569778    1.19932312275128
F         6.51259493162437   19.03359754850586    0.97025141728117
F         5.45852924983749   16.82330654999882    5.84424327361128
F         5.97720765998647   19.48362736062860    5.65065975852121
F         6.51863468758842   20.60432435564435    3.21568122493099
C         7.94688750576274   12.77552979964566    2.02582959555677
H         9.03623423438666   12.67322106730385    2.05639592808476
C         7.65478296567252   12.79227493329225    4.93357442036307
H         7.07671594841550   11.89305359101595    4.67947513391044
C         8.71560571867717   15.20970847065565    3.41030285559045
H         8.30377233182154   15.92618884983733    2.68561819846083
C         9.07587318402538   12.34249317149386    5.25894892221330
H         9.55516160489138   11.91215923610033    4.37691237880073
H         9.67512804820761   13.18986634617695    5.59231271742674
C         5.98915991961791   17.13830691912841    2.30879639842376
C         5.73314098486923   16.50684518224093    3.52353163129825
C         6.98609401082530   13.39889384399550    6.16842416195901
H         7.54856141786145   14.25994975901226    6.52577733524158
H         5.97799813677832   13.74750230965174    5.90566089253631
C         7.35061481061816   11.36881042971271    2.06595969453078
H         6.26512858888452   11.42542499963615    2.14957271665165
H         7.72918805724627   10.82394652522712    2.93289760957950
C         7.53317199065028   13.50455035073281    0.74461124771750
H         6.45228464089258   13.68080311634145    0.77206939052162
H         8.01508582715109   14.48333422176823    0.70331641108238
C         4.19109009991349   12.69805027545652    3.81169355180234
H         4.76263990144174   11.88693221882551    4.23966719920371
C         8.79212409954822   15.92364083798218    4.76039220991940
H         7.78894547594335   16.12199624148403    5.13481613882476
H         9.30592969390832   15.28906759145148    5.48368256784367
C         7.89210711591200   12.70597682666754   -0.50336944071422
H         7.55253563216373   13.24147579012965   -1.39154807317728
H         8.97816882963793   12.60158840478625   -0.57071480650634
C         6.25528089769834   18.49089563378453    2.17297835887885
C         9.02811457185622   11.30295629704309    6.37946871438663
H         8.48284981987352   10.42100518427021    6.03361117267815
H        10.04232475688405   10.98738824288397    6.63378832753484
C        10.13318476646849   14.86998835434676    2.94668305463066
H        10.61750223562688   14.19763817369041    3.65621378896301
H        10.12466086013739   14.39008302008579    1.96796820886649
C         6.92793875276995   12.35520608672166    7.28002631049320
H         6.46137524330420   12.78334719137787    8.16878796630570
H         6.31992580687676   11.50551446153066    6.95915688351124
C         7.25736063799041   11.32131982524109   -0.44870561812704
H         6.16952211545732   11.41925530388098   -0.43503503519471
H         7.52932149516144   10.74771501961280   -1.33687524240457
C        10.94940812757842   16.15963384645834    2.82744456085582
H        11.96514420178567   15.91718763826672    2.50711251255543
H        10.50085583030499   16.79425625378843    2.05950475495087
C         4.03028363884894   12.98907225399323    2.47231278938927
H         4.46029355261358   12.47392721444616    1.62464830998387
C         3.29661775025080   14.82369305903313    4.37121848501671
H         3.28235204763033   15.52125117817587    5.19721080789511
C         8.33712527760874   11.87172392413426    7.61665273643954
H         8.92138010247537   12.71012088875319    8.00241923668256
H         8.29366153427524   11.10941633730694    8.39708738503234
C         7.72047362466936   10.58828438457933    0.80502040198249
H         8.80500813347231   10.45961853611762    0.76494825465801
H         7.26907389347964    9.59452739899325    0.84731011034001
C         6.25718121960251   19.29091167977852    3.31117233454246
C         5.72265726587684   17.35547783315279    4.62552511928108
C         2.99837485160172   13.33434725895817    4.53051693154114
H         2.79312943107462   12.98365177810452    5.53849224910776
C         2.74005371715227   13.79866107380615    2.35566075816873
H         2.29907909101758   13.87283756407291    1.36515111898278
C        10.99097673812925   16.92483179208397    4.14592138687132
H        11.50872770682095   16.32557886355819    4.89894776989174
H        11.54993655540594   17.85328736235098    4.01675427116542
C         5.98392421221897   18.71693788799825    4.54737948663872
C         3.14428780967134   15.11075406980002    3.02646785352970
H         2.96011170276089   16.08099544375541    2.58470834397263
C         9.57495756310003   17.22587567059671    4.62601600092979
H         9.07494413997378   17.88235008557481    3.91000630757497
H         9.60564680283341   17.74212619596614    5.58737043113637
C         1.90004155892536   13.15433333935393    3.47023559571429
H         0.98981786835428   13.70977391868803    3.69699879900143
H         1.65747422828477   12.10883612021077    3.27610183500493

