82
CSD_code = RUQGAL | q = 0 | S = 0 | Stoichiometry = C31H42ClN5Si2Ti | MND = 6
Ti       11.87518247431864   11.84961853210460    9.19703367531109
Cl       13.69294484109885   12.31903150724023    7.86496175273329
N        10.96810475632194   13.31316683812094    9.24637456883119
N        12.76029590343228   10.06526909854395    9.96053520582510
N        10.55817429139064   10.38794817151215    9.83123820460788
N        12.77293783156342   12.70120990642577   10.85198226252584
N        11.20443319024099   11.22173062965823    7.22956224184967
Si       14.32840697892024    9.38680393750317   10.16183390862872
Si        8.89704886060796    9.98205066333151    9.58916811871518
C        10.80979127896308   14.47141959606996    9.88007010768642
C        10.04481823803263   14.56716537253540   11.08126313748770
C        10.03152492772642   15.74545139413305   11.79864441361207
C        10.72827652482859   16.86388810431140   11.36696948440813
C        11.41824970974004   16.80889754086759   10.16733009796985
C        11.46485880067531   15.65073943098035    9.41600899864796
C         9.23428965227815   13.38930678156633   11.54537150166037
C        12.16358916010586   15.63365598125561    8.08652242035672
C        11.56110055096208    9.57297478865751   10.10523350433133
C        11.32453567217408    8.18302046602077   10.57453640996124
C        10.88077030225215    7.96157665002555   11.87240486958055
C        10.67063432702676    6.67182134675990   12.32660432067475
C        10.89386282724967    5.59388094757719   11.48674453010218
C        11.33644793387976    5.80908716636858   10.19232315406284
C        11.55676168534388    7.09741882568349    9.73944227601599
C        14.44196307271816    7.96639492231774   11.43922937153274
C        15.44634839624076   10.81410685671789   10.76028827140004
C        14.94908331832389    8.75361684638937    8.46366679764217
C         8.65771708271413    8.41007154005103    8.51268740645429
C         8.17373877809954   11.47156720859538    8.63701471597647
C         7.94701589564395    9.70033826876019   11.22990697616537
C        12.25041961244963   12.41062985008342   12.04955565275421
C        12.40887300666063   13.21610329118085   13.16120141764273
C        13.15085166479430   14.38507743751277   13.05044426081894
C        13.72351728874936   14.67382776850755   11.82185138761144
C        13.51263554196467   13.81556448129566   10.75813183537917
C        11.61062051764021   10.04646097904493    6.76345145717760
C        11.56000383399375    9.71083650195724    5.41954418242705
C        11.06672808900221   10.64249174119286    4.51960991700529
C        10.64395904695646   11.86993269973919    5.00557174424288
C        10.73091457276080   12.11709864475283    6.36701103989214
H         9.46242904931557   15.79296059023709   12.71829818583293
H        10.71480120603929   17.77350030541623   11.94905067095193
H        11.93538249955315   17.68880577709063    9.80757014186056
H         8.19850763677869   13.50040864227942   11.21938831357962
H         9.23815396496717   13.32070137207784   12.63252954878606
H         9.63112635212852   12.47165554397245   11.10865381121480
H        13.00131536274354   16.32799154108499    8.08025006612985
H        12.51822647286130   14.62778063368186    7.85304628548622
H        11.46967152825166   15.93787133628437    7.29987741983443
H        10.71018154565798    8.80525926066294   12.52614793700906
H        10.33163771675272    6.50638524382357   13.33894657708597
H        10.72672885182159    4.58740843650693   11.84074102999046
H        11.51368905398047    4.97010419805351    9.53499734129581
H        11.90760948756958    7.26223123393321    8.73057344786579
H        15.47924984750979    7.76655942903962   11.68564821013866
H        13.92714365191840    8.21640835145075   12.36201474109128
H        14.00915853620153    7.04457288443787   11.06517567120282
H        16.47446170359937   10.48075862651396   10.85974930633848
H        15.13194680329719   11.20802863611326   11.72439250601290
H        15.43195864739055   11.63095267889324   10.04448974121576
H        15.99731008366835    8.47778238221110    8.51748229725501
H        14.85460894637623    9.53363761519784    7.71241403698457
H        14.40086142406450    7.88018804165633    8.11837050366334
H         7.61913031548826    8.30596905740184    8.21551493840459
H         8.93471691687954    7.50874865024418    9.05050703942373
H         9.25548939767993    8.45205502977459    7.60515435953345
H         7.20073753198020   11.75653528258630    9.02213433855318
H         8.84271946137540   12.32678610558128    8.72665902483002
H         8.05031375824024   11.24882505263311    7.58066194885639
H         6.87834613454290    9.67699898819864   11.04341495450093
H         8.13553423982743   10.48972843436089   11.95116652393892
H         8.21753932230396    8.75441691497506   11.68966984697887
H        11.68516819151056   11.48357030329429   12.11464430216099
H        11.95897457884487   12.93503284754431   14.10123304128650
H        13.28112855885079   15.04213883630696   13.89604679811177
H        14.32226978755031   15.56009747255019   11.68447319142038
H        13.95807598460330   14.01123435455096    9.78883940432806
H        12.01020696605690    9.34990333796374    7.49376814722108
H        11.90808158045897    8.74558164454620    5.08551431636707
H        11.02034674429224   10.41835580804704    3.46422188696697
H        10.25981853191627   12.62679113169077    4.33992591321818
H        10.42961118733257   13.06762527168805    6.79901663344127

