84
CSD_code = RUQKAQ | q = 0 | S = 0 | Stoichiometry = C32H46BrN3OPt | MND = 6
Pt        5.21203186636832    1.79401139821550    1.57701509023018
Br        7.56395820253174    1.50314245790112    2.63612680606419
C         4.34339326255457    1.66138363650953    3.43897831018360
H         3.25958543454256    1.54214724602642    3.39644100806795
H         4.57255918251749    2.51995288391786    4.07074550657613
H         4.78239556964218    0.77762908761265    3.91107514359082
C         5.23102591866554    3.84076338973046    1.83624433729638
H         5.34161710101087    4.33373675671753    0.86663733446562
H         6.08748908036624    4.11179370198668    2.45620857827998
H         4.33030906985922    4.23659458408955    2.30671326859097
N         6.34143886415223    1.63326005435794   -0.33444029950141
C         6.93935559528121    2.64524778351655   -0.94577603344375
H         6.46723007646527    3.61384462490704   -0.84733012239832
C         8.10725493069211    2.51457420579999   -1.66950086667696
H         8.53994132635768    3.39158266521426   -2.12230539148967
C         8.72186478011796    1.26720765157233   -1.76725390356055
C         8.06153464112026    0.20626139887211   -1.16290198311642
H         8.48551354839107   -0.78153586402317   -1.18485147471518
C         6.87440165671591    0.41134080246155   -0.46378733998148
C         6.17511285109411   -0.70085677809915    0.20229039870904
C         6.37912392285982   -2.02452394579219   -0.17956922780041
H         7.01576065050218   -2.23134725947637   -1.02122908831769
C         5.76500052880987   -3.06394675776119    0.50568393104152
C         4.92082121298527   -2.69657616742875    1.55245880265129
H         4.40814931322914   -3.43699804813134    2.14412696018084
C         4.72878430270573   -1.36177155915689    1.84436164224137
H         4.06259273177225   -1.06575788501871    2.64292175208501
N         5.34227145567694   -0.38286547972616    1.19785403736213
C        10.05026795644510    1.12280399222991   -2.48166907125460
C         9.89057451740780    1.58418057369141   -3.93717727081710
H         9.14944095305139    0.97394132487097   -4.44992378162553
H        10.83829900384738    1.48652319744873   -4.46134194733249
H         9.57777152874050    2.62312712250311   -3.99467038955161
C        10.56309101207760   -0.31916639017664   -2.48203498226787
H        10.72296639280862   -0.67639121863192   -1.46735873413128
H        11.51578956279492   -0.36248649563625   -3.00504732195717
H         9.87065193298926   -0.98391766174303   -2.99465553230987
C        11.07864270836646    2.00527430829404   -1.75953735300494
H        11.14855429492992    1.72116113119019   -0.71181746595535
H        10.80533231795791    3.05563542966179   -1.80923572653081
H        12.05765448478722    1.88563646386040   -2.21761879768160
C         6.02322110433351   -4.52501145511691    0.19940353028898
C         6.84564108159609   -4.71832599396240   -1.07654647884044
H         7.83776601341739   -4.28168830445910   -0.98211028290857
H         6.33321629951958   -4.28217879161718   -1.93090738759568
H         6.96924288932545   -5.78199629018261   -1.26679962968533
C         4.69223524266329   -5.26453703400737    0.02226989017195
H         4.12904968055657   -4.82284028307138   -0.79604276169540
H         4.08563854394353   -5.22690270996796    0.92298945847774
H         4.88096995176448   -6.30972209706294   -0.21194833722848
C         6.79973880637950   -5.11580038089780    1.38673333208629
H         7.74096427879299   -4.58797392586577    1.52804404709526
H         7.01654517842448   -6.16522909781459    1.20142922360107
H         6.22643746714070   -5.04137096526948    2.30730407827909
C         3.37282090237013    2.06518909555190    0.57700968910349
H         2.61868087896348    2.48783189681822    1.24139442222319
H         3.58181344995007    2.76868249437713   -0.23266045416208
C         2.96043559394893    0.76168767942883    0.04925072082753
C         3.45030369446742    0.28915751043912   -1.17504293875601
H         4.10500059353107    0.92054516419170   -1.76068798091119
C         3.12182963801700   -0.96563094898092   -1.63580121231749
H         3.52014640979921   -1.33438102778557   -2.56996171310925
C         2.25339447111254   -1.78395109780690   -0.91649148743582
C         1.74161023730975   -1.31787168897124    0.29229601146073
H         1.08938813204600   -1.94418095502737    0.88618674986715
C         2.09230105458967   -0.07111478738907    0.76469014921836
H         1.69474515234264    0.27345272500580    1.70897189086518
C         1.93632644045038   -3.12851237112829   -1.46868636402888
O         2.75746441125866   -3.76887225003174   -2.10747087146713
N         0.68393052798288   -3.56054614448032   -1.20302883662514
H         0.05660230266488   -2.91676300340929   -0.74901831217571
C         0.10191645634382   -4.82516140869745   -1.65260396973731
C         0.92234330982176   -5.98754068315410   -1.08771441848976
H         1.93978334506229   -5.93360330650744   -1.46218409940025
H         0.48512367426626   -6.93539866270505   -1.38886525190103
H         0.94691482812703   -5.94083345843430   -0.00108824979746
C        -1.32908884799596   -4.88110840935009   -1.11903130925719
H        -1.33509752832842   -4.83324934115003   -0.03170932987985
H        -1.80259688997209   -5.81060870881693   -1.42273497053772
H        -1.91813985104451   -4.05377644483023   -1.51085894061119
C         0.10009926704116   -4.87333797441267   -3.18325309924582
H         1.11907267375426   -4.79242259411513   -3.55063331121360
H        -0.48408835063428   -4.04937671825407   -3.58804718007047
H        -0.32675625801378   -5.81044361382374   -3.52959281666176

