62
CSD_code = RUQLAS | q = 0 | S = 0 | Stoichiometry = C26H23N5NiO7 | MND = 6
Ni        7.10290027276714    8.11703139510940    8.23597834684663
N         6.57015406940555    6.77686651121735    6.94143704811828
N         8.37747127478115    5.48278519295148    7.66403325640374
N         7.43770215155854    6.74695170042187    9.41379458309325
N         7.64890306725362    9.54883909901546    6.14323666938164
N         7.74682196139856   10.14712204691497   10.21450870328328
O         4.91929269698326    8.49378402553220    9.10879172165734
H         5.29812924246694    9.18124756867291    9.69976403501708
O         6.72497010425378    9.55996167254007    7.01387698224125
O         8.47543145847930    8.64261803863357    6.23369984313072
O         7.65559394975571   10.37354472634379    5.27253842338960
O         6.58765707789537   10.04022165401915   10.60407560112875
O         8.14704095691954    9.36769711403659    9.29717279433295
O         8.53140458633890   10.92768928800323   10.68158514925502
C         5.65295200385277    7.07470334619598    6.02129199065980
H         4.89349272773377    7.78057928263245    6.32450006665804
C         5.67175568908289    6.54748255143937    4.74702115800573
H         4.91623212223583    6.82488083545121    4.03160778690385
C         6.70560634991024    5.68212953822204    4.41111899779219
H         6.77915725541630    5.27461034595451    3.41458589431023
C         7.63351762844568    5.33483839860946    5.36820540216905
H         8.42282860987728    4.64407885358442    5.12740471306365
C         7.53457224217230    5.88767072111021    6.65360301853467
C         8.01281674494411    5.61414198789520    8.99854014240524
C         8.23523396882011    4.55014030422139    9.87900129343032
H         8.63521251888477    3.62103504820018    9.51114734825157
C         7.91656412901987    4.69765043479397   11.21191625138779
H         8.09827057914758    3.89138112707755   11.90534625224337
C         7.33970147173005    5.88778823481743   11.63308085730331
H         7.07059927624744    6.04794098852311   12.66369777202351
C         7.09471041203454    6.87152972070415   10.69668603418132
H         6.60610046308045    7.79157375734890   10.98653595047867
C         9.66335376702394    4.85150909716222    7.34567753761288
H        10.06988257829985    5.37081243509206    6.47264410846698
H         9.50185969032457    3.80461135364108    7.07839082451907
C        10.63250132246440    4.98164466160309    8.49839188603772
C        11.17942587496098    3.84871780668971    9.12708866062134
C        11.00761243796910    2.51465865988976    8.66419101581977
H        10.45854957525417    2.32178420899617    7.75487216378425
C        11.54798395714947    1.45058017957869    9.32038557680612
H        11.40698528405977    0.45169227151692    8.93460786942597
C        12.30168239867771    1.63307260517315   10.49603955922228
H        12.71802538133008    0.77393442385791   10.99984209838662
C        12.50026923539177    2.88967189917258   10.97534985939330
H        13.08282032329107    3.05458199780225   11.87023406430247
C        11.96019180663303    4.02351737700527   10.31624685948301
C        12.16540065667665    5.30099283525361   10.82367140674727
H        12.71939469143708    5.41860032396893   11.74454653958005
C        11.69194377360090    6.43041137391020   10.16768539339282
C        11.93840016254130    7.73168695361324   10.67567195786429
H        12.48619232018279    7.81873938633743   11.60316274726689
C        11.51132666549329    8.83657386973881   10.00704176338482
H        11.69330316657638    9.82577154282942   10.39741645748870
C        10.82701183361779    8.69130438684301    8.78436763270461
H        10.53151624359322    9.57001403120199    8.23524705364919
C        10.52804768889307    7.45703023204839    8.28827194436403
H        10.00891436112972    7.40290119276782    7.34603853690141
C        10.93450141867569    6.27551215133995    8.96309921457733
C         3.79775539013887    9.07460066072083    8.46975365312858
H         4.09927153930219    9.84888930331596    7.75921957850688
H         3.12079536266039    9.51051763197729    9.20959588389068
H         3.26968402932797    8.27864963707568    7.94296406546431

