39
CSD_code = RUQMEW | q = 0 | S = 0 | Stoichiometry = C12H21ClN2OPRh | MND = 4
Rh        3.69428576262858    7.01352164395185    1.63119985208998
Cl        2.72567577463571    8.17371197030209   -0.03279697086682
P         4.36769382559163    5.69654431247133    3.31067752556192
O         5.88434073090012    9.01703266996024    1.80412307194603
N         2.20973185549504    5.62332423230407    1.48828129217446
N         1.13512484824570    3.76775880568974    1.95712727094372
C         5.03204757696206    8.24858642646634    1.73483534358591
C         1.05352152488294    5.60667171902106    0.76662767717270
H         0.80636056135006    6.41327670511509    0.10443877370761
C         0.37724394446220    4.46022097256501    1.04910733129774
H        -0.55835691876317    4.08475462568547    0.69061256787918
C         2.23973726675825    4.50712255940117    2.20020307996454
C         3.34667710394036    4.13869381236899    3.11938611776121
H         3.96397070779203    3.35957396673912    2.66092360127225
H         2.96914204617678    3.76344377020822    4.07529124357527
C         0.82146877452663    2.49248867740456    2.53759490160253
H         1.60789302377363    1.76838160133948    2.31698133088875
H        -0.11709291433125    2.13177601400478    2.12323379552037
H         0.71865768773715    2.57692636941621    3.62174122281153
C         6.09826652527640    5.04808016383433    3.51578737692921
H         6.69031450284135    5.93671449351523    3.76883488981622
C         6.56503888586133    4.55067300252199    2.14881172950466
H         7.64696501961024    4.43830264730617    2.12716231931146
H         6.27277806073153    5.26775517365347    1.37601772937927
H         6.12164196174038    3.58591401166103    1.90746183875751
C         6.27667619473301    3.99602970393975    4.60429388703476
H         5.66729494105837    3.11666062666246    4.40649936631580
H         6.01104506272618    4.38979388951337    5.58220714930380
H         7.31822321650647    3.68064008368867    4.64046074231991
C         3.84627527476858    6.25154079005236    5.00991676965175
H         3.89036662995433    5.41867600001558    5.72196041173436
C         2.40963797786613    6.75204592204939    4.87752188417962
H         2.08085516077624    7.23504057853176    5.79593910634212
H         1.72118911460608    5.93780038537834    4.65410089338984
H         2.35534435719929    7.48243829250867    4.05947298148249
C         4.76053380734690    7.38372806825874    5.46433585706528
H         4.79198064877031    8.15686460665348    4.69615438612079
H         5.77369046890726    7.03099760675215    5.64429691416432
H         4.38685900596040    7.82879309908716    6.38497473830742

