58
CSD_code = RUQNAT | q = 0 | S = 0 | Stoichiometry = C24H24Cl2F3HgNO3 | MND = 5
Hg        5.40953620135391   11.12246238881020    3.17704190422188
Cl        6.93567060452588   11.62834296730355    1.55018227873410
Cl        3.91363374494395   11.25571822189779    4.90050213914830
F        11.87170667018103   10.91589734675696    6.38686733596006
F         2.00507501339303   14.66201468834217   -2.11506362369818
F         6.97313695831606    0.52379639205884    1.20135576794786
O         7.00327263342894    9.30376142248319    4.47800862612435
O         3.39993811823191   10.65773387537886    1.34427026803164
O         6.43157565893984    5.91864890066579    1.90597965469271
N         4.96992593029165    8.58169413495369    2.58484561066060
C         5.23964487527233    7.83056340921974    3.81793217751613
H         5.00623184180762    6.76478616129341    3.69235804282731
H         4.59014534607613    8.24621020899068    4.59300825245938
C         6.68064632662654    7.93715472366443    4.30658480684829
H         6.75080028229752    7.41376878534137    5.26993973461613
H         7.36581262685835    7.46256454191339    3.59495147224267
C         8.24244329247442    9.62909583565480    4.95707787329292
C         8.47776818750209   10.98781315645479    5.16684054211194
H         7.68249927318186   11.69233626150956    4.94812601045871
C         9.69289019960316   11.42946870921274    5.64382267726158
H         9.88330541247351   12.47820202426584    5.80496023110099
C        10.67924386581205   10.49602242564070    5.91732967002473
C        10.46932497068867    9.14605471525517    5.72259795705266
H        11.25601874427258    8.44268855216325    5.94473634641199
C         9.24554088741173    8.70909806354766    5.24089506867154
H         9.09569107944460    7.65228748752956    5.09197425751763
C         3.53621877404654    8.47372804895660    2.29350265875480
H         3.00584646340222    8.84151405703716    3.17591943703339
H         3.23496080684389    7.42926019919189    2.12318757801701
C         3.07174195419320    9.30658750315301    1.10109055913674
H         3.53670009712242    8.96240625769626    0.16760610697634
H         1.98199071134709    9.19515578876846    1.01250446509185
C         3.01740128940781   11.60293426465725    0.43038303022302
C         2.36130265846901   11.32709962641022   -0.76352218076788
H         2.10785213582938   10.31819013038043   -1.04587435259856
C         2.02086219855618   12.36151038811446   -1.62093264047034
H         1.51317669598425   12.16078447873170   -2.55084419704886
C         2.33829607876188   13.65968953106374   -1.27731007259661
C         2.98829122526748   13.95683703846733   -0.09049972310908
H         3.22312617970272   14.98009188350886    0.15382973998188
C         3.32152509092035   12.92386610961426    0.75848986339270
H         3.82493008740748   13.12213822551081    1.69800131670502
C         5.83473648590656    8.20233261439301    1.46565754203264
H         6.86609230590137    8.41352751022653    1.74990777600111
H         5.60564943354350    8.86010367357408    0.62697898819349
C         5.75894617425707    6.74831080001863    0.97974582675222
H         4.71687294723905    6.42181866086317    0.86380513482071
H         6.25178336607115    6.69117974859376    0.00007744795427
C         6.52572889250142    4.58170067335351    1.65274418275679
C         7.18875579068682    3.83202439216480    2.62653565020138
H         7.57691531388708    4.34273524814436    3.49324366672298
C         7.34317741319490    2.47022459345217    2.48053491129411
H         7.85454353970248    1.88252328949153    3.22569994367149
C         6.82750046064051    1.85674986444187    1.35107191936836
C         6.16736034998313    2.57671140918830    0.37622488394229
H         5.77717343466423    2.07164633545443   -0.49288032043648
C         6.01471481338249    3.94538231228261    0.52728453971428
H         5.49944808576465    4.49774994278722   -0.24188876394218

