74
CSD_code = RUQPEY | q = 0 | S = 0 | Stoichiometry = C36H30Cl2NOP3Pt | MND = 4
Pt        0.37701538155678    1.72727392558974    4.80152854235352
Cl       -0.82023222752493    1.12565475938956    2.96781225285428
Cl        1.34352645377434   -0.37442954412227    5.52096598920914
P         1.81731082622116    1.78887176330525    6.52456214104285
P         1.27828520267481    4.76601607989694    6.78990858849149
P        -0.08089406378623    3.90719897410915    4.48798825507455
O         2.06112704582524    3.43926208526583    7.13473964251882
N         0.92568699670622    4.96843060998987    5.24375048475108
C         1.70776652041615    1.09484443564486    8.19721671548352
C         0.62823273983628    0.30786316462181    8.57481337847550
C         0.54644452082231   -0.17302315139884    9.86897154677006
C         1.53878115750356    0.13152866511659   10.78638700469848
C         2.61077955057470    0.92651854157706   10.41279973030666
C         2.69519799696244    1.41511570202792    9.12211585510195
C         3.52628347575838    1.63200243893337    5.94865329244935
C         4.42004073930056    0.68664355309373    6.43099124293985
C         5.68018935587109    0.59295275172726    5.86678219619844
C         6.04069938853022    1.42651221360590    4.82030948646032
C         5.13919073260426    2.35591009426613    4.32523500694628
C         3.88025658452207    2.45646522835398    4.88632969691202
C         2.40369769073010    6.07310657998553    7.29097793653899
C         2.94161163980436    6.04928686420759    8.57132592437704
C         3.81389357618895    7.04829218202441    8.96255221761909
C         4.14186898103475    8.06507882729694    8.07817197604623
C         3.60122060698419    8.08643920955241    6.80219411634660
C         2.72828598517579    7.08877350191401    6.40499917040391
C        -0.17789945513569    4.76048425690556    7.87166795838179
C        -0.64968183452663    5.94719406513174    8.41383799355343
C        -1.83323015104609    5.94836754608108    9.12968613941989
C        -2.54578616771889    4.77139117533738    9.29389119694899
C        -2.07978841682676    3.58950378957256    8.74085217782578
C        -0.89882999945004    3.58553562097959    8.02311544652238
C        -0.02431961532893    4.49970945405144    2.78205436952877
C         1.11532060287836    5.13336312801959    2.30331583422769
C         1.17321876387191    5.54083437853248    0.98289946452547
C         0.09943200806639    5.30869883749949    0.13907112149996
C        -1.03555712502748    4.67105387922876    0.61529822905214
C        -1.10059581593335    4.26289183806497    1.93421513400782
C        -1.77325765647701    4.26977762402794    5.04900807979526
C        -2.17388561312255    5.58559591334144    5.24017203006201
C        -3.44204769231341    5.85304213803358    5.72071136598243
C        -4.30981739952961    4.80997180008517    6.00476035005430
C        -3.91181913148742    3.49731620894272    5.81001105275542
C        -2.64065999226425    3.22504341967635    5.33792492495758
H        -0.13463407858117    0.06220302953454    7.84839812186266
H        -0.29090501066623   -0.78872328449443   10.16187840537113
H         1.47712201891383   -0.25003803041138   11.79488813745438
H         3.38328269569205    1.16506775034632   11.12947526678880
H         3.52016586467648    2.04664556109341    8.82305102867939
H         4.12314133061100    0.01997063105591    7.22855229256991
H         6.37999794999056   -0.14109870313715    6.23864191465734
H         7.02371289844791    1.34256978021996    4.38064916781425
H         5.41525404095729    2.99175390556189    3.49703730313524
H         3.15368078222137    3.16902034747780    4.50751459522695
H         2.67041993810011    5.24667558255334    9.24331472175584
H         4.23861317594121    7.03822847355007    9.95547949416650
H         4.82288431236702    8.84448286925278    8.38664707452165
H         3.86121604153602    8.88126910796617    6.11896894018287
H         2.28820733172584    7.07583452991356    5.41920570278231
H        -0.08532564834989    6.85849547107600    8.27043195197361
H        -2.20336918166693    6.86838754050817    9.55709067811366
H        -3.47082629707137    4.77635218683980    9.85059896201579
H        -2.64057260817229    2.67521292308540    8.86127628659505
H        -0.53172508118150    2.67060663594352    7.56776534583336
H         1.94319380791619    5.30582986989406    2.97574079395999
H         2.05869843058496    6.03408113749135    0.60802929926466
H         0.14867973242730    5.62107346775990   -0.89400604704015
H        -1.86868016642791    4.48578682348757   -0.04649664357895
H        -1.97230569255567    3.74918618373939    2.31232015372026
H        -1.48111816360246    6.38486582849703    5.01525251230098
H        -3.75793427620657    6.87489397245368    5.87309887732708
H        -5.30069750284568    5.02274828580082    6.37871621755655
H        -4.59252421414750    2.68799926565973    6.02923720242121
H        -2.30501459734369    2.20285432777584    5.17846698306321

