40
CSD_code = RUQROM | q = 0 | S = 0 | Stoichiometry = C15H17NO5SiW | MND = 6
W         7.32079092997122    6.97701404156183    1.20775021473790
C         9.13350365755067    6.50425872785411    1.90770294841247
O        10.14544973352800    6.18911035743659    2.33418200815190
C         5.49617655191710    7.43595769994081    0.54594711712618
O         4.45698876081567    7.70102631851656    0.14436904726290
C         7.54057772086214    5.70711462321268   -0.32851091096840
O         7.65090161114581    4.99131096849311   -1.21461475195757
C         8.06336479438088    8.51884884854777    0.17482719130997
O         8.45762753066041    9.46069705664717   -0.34246730061987
C         6.58349440918403    5.55605203002285    2.40859810118137
O         6.19762898753699    4.79832672658358    3.17250054604583
C         7.07198127861038    8.35148716525764    2.85271802521258
C         6.25104669683536    9.48834887750699    2.89782878188721
H         5.67602808019697    9.73777145414476    2.01577419869826
C         6.15562995446819   10.28548346405906    4.01654202770431
H         6.74730638966543   10.01125521922642    4.88204938933623
N         5.39624024083537   11.36885613750299    4.15411755377823
C         4.55728278186510   11.83702347170965    3.07529039679896
H         3.97501331497577   12.69024735913368    3.41399642822969
H         3.87287600670222   11.04982246521527    2.75344644447967
H         5.16247219875431   12.14111952705046    2.21807276990370
C         5.38668498445083   12.14101003532995    5.36871253604622
H         5.71557782386040   13.16474775610658    5.17167367984060
H         6.05476464749025   11.69478058932407    6.10177874446123
H         4.37820340411384   12.17642395087538    5.78893272242971
C         7.83195721834811    8.03171378354196    3.96994528058662
C         8.51802732889827    7.70105033151774    4.92569481394849
Si        9.67576819358018    6.90032780602220    6.12980366004781
C         9.41713505528945    5.01590957445492    6.03404456558010
H        10.05075640524481    4.48547679514295    6.73940092140635
H         9.64725384490220    4.64757398798720    5.03884289315962
H         8.38655702797632    4.74987572342602    6.24969584039071
C        11.45204197205302    7.37921980021017    5.63339102497524
H        12.18389612509764    6.92325228722870    6.29414746149265
H        11.59862523811711    8.45466236477789    5.66994022085073
H        11.66948469164016    7.05208962407725    4.62164421504827
C         9.27478199358386    7.54967955918125    7.87964160795967
H         9.91229220564343    7.08465530967083    8.62593203025263
H         8.24493129102980    7.33970695467381    8.15324602812102
H         9.42167891821858    8.62371122682460    7.94881152669834

