117
CSD_code = RUQREA | q = 0 | S = 0 | Stoichiometry = C52H49ClIrN3O9P2 | MND = 6
Ir        1.89340433744649    4.39963170946753    4.64724947222210
Cl        3.45677915983776    5.32591765204693    6.25009632199173
P         2.93954509417967    2.35061755822165    5.06284674086715
P         0.79035180727286    6.44544953242805    4.29134269248882
O         0.01509590731059    5.15382244347952    7.81895300617722
O         0.29408124860962    2.92803914707743    7.99892294255856
O        -2.32894971405133    3.18536122270290    6.91302478251367
O        -2.34010422438236    1.57193633047600    5.34837289934261
O        -2.66906047198009    2.71749767228324    2.81582098339187
O        -1.07801001767226    1.17579781503289    2.45590488750355
O         1.95257922727673    3.29575068306577    1.26596152333188
O        -0.26700605351349    3.53473744876249    1.10958464411787
O         6.48485759592010    8.11448526169937    4.11942103704663
N         3.37286774937271    4.87712241547928    3.13929004355969
N         5.05647869350634    5.89965136946766    1.82361278318389
N         4.84194198770257    6.51823767749154    3.93726162577599
C         0.34406908012156    3.83943914344666    5.85144905587998
C        -0.66118075379911    3.18178366247641    5.21004381664407
C        -0.49570518297229    3.00031380399115    3.78601240286460
C         0.64372625177346    3.50935111466368    3.25808899325497
C         4.34842423597359    5.68604733715760    2.96017061235148
C         5.86596366908098    7.29568960646583    3.49673992192827
C         6.05695109015395    6.91112423484678    2.02791471629271
C         0.18891337912879    4.07808993140872    7.30518600925739
C         0.07549512231209    3.03320882606550    9.39725697353289
C         4.90000344790131    5.24829374784698    0.55478225751207
C        -1.85532445049853    2.68573954465239    5.92094378158952
C        -3.54572109343382    1.04524003490862    5.87859633552138
C        -1.54773374247178    2.31561381022970    2.98529372877180
C        -2.00321365578763    0.42914483614474    1.68228186800121
C         0.86916777588617    3.41726088317576    1.82237511184986
C        -0.14672096811141    3.43700587092292   -0.29814430607111
C         5.72356759687323    2.42755396884949    4.98693332015487
C         6.95815309129049    2.47624585097335    4.36526175265965
C         7.04966351141065    2.36944210839346    2.98779616296219
C         5.89610658019577    2.24404549110510    2.23145892987102
C         4.65740367182262    2.21699433636751    2.84602066049019
C         4.56169615378191    2.27234328318586    4.23499693702319
C         0.93663330545634    0.54171745413301    5.43565955266255
C         0.10397850806500   -0.52165551543593    5.15140467361614
C         0.28895921327493   -1.25773524358552    3.99275123386614
C         1.32112041532708   -0.93192172855028    3.13206687028418
C         2.15964581331941    0.13361075982505    3.41232094825869
C         1.97044416451901    0.88426955097472    4.56376749738940
C         3.87842097321137    0.46403107231362    6.83295021690396
C         4.22066692584328   -0.06618972534152    8.06047329308339
C         4.06993861403344    0.69363466742999    9.21095483796327
C         3.58562410840145    1.98588730279658    9.12272481939283
C         3.24235790172000    2.52294998619079    7.89221157740111
C         3.38186769737877    1.76510124053320    6.73960100443430
C         1.64930326495408    6.85855915867093    1.66292272031236
C         2.32379385105096    7.52315147559498    0.65626523550923
C         3.00754623775584    8.69586214681203    0.93497645937043
C         3.01809320967734    9.19390653228905    2.22678378137811
C         2.32348024747541    8.54229145509002    3.23081709291982
C         1.61036725678462    7.37958698896933    2.95422741465780
C        -1.81975509033319    5.93404357033503    4.86135767151547
C        -3.15558077525239    5.68461268235809    4.61795675396581
C        -3.64831752083221    5.74643234553054    3.32495473583002
C        -2.80420837581159    6.08755620676864    2.28398151324100
C        -1.46331539789390    6.33688474644796    2.52036629156400
C        -0.95771246726230    6.24593545313332    3.80982630919739
C         1.16122762648672    7.71913711588068    6.80002339101844
C         0.92792003364676    8.74702259610169    7.69945669922249
C         0.11160893705439    9.80813732887558    7.35345883683469
C        -0.47617617977729    9.84794788881465    6.09749388959607
C        -0.25243254712912    8.82533838849388    5.19827569759838
C         0.56899862126899    7.75188464633614    5.54691720663491
H         3.13626273996779    4.33698770797765    2.30988549514089
H         4.49153990779261    6.41956522483652    4.90706726687283
H         5.89905551025969    7.78081402706514    1.38044750631243
H         7.07107931069111    6.53154686383584    1.85975119021098
H         0.39278964300783    2.08664817398362    9.82891370024839
H         0.65473567163768    3.86214936935123    9.80917020817583
H        -0.98490753658974    3.21104086424823    9.58794339285298
H         4.03933100410029    4.58359175637879    0.57618982415078
H         4.75069704409658    5.99487730344392   -0.22903045196465
H         5.79246824534654    4.66293786308346    0.31608490068998
H        -3.50220649516747   -0.03647426650932    5.76301186989489
H        -3.64317102560859    1.31806435012822    6.93148633022730
H        -4.39181271060896    1.44846090345357    5.31791924324252
H        -1.44500846094085   -0.40147915391058    1.25744058869686
H        -2.81212404550834    0.06155595145937    2.31708090494124
H        -2.43103256800240    1.05375096768405    0.89484782924396
H        -1.14485742573546    3.59725042250954   -0.69804474998491
H         0.54290408331184    4.19580488196928   -0.67790203019701
H         0.22758846828451    2.45047267450192   -0.58207145655152
H         5.66054443551822    2.52280197070486    6.06101189265452
H         7.85153374171158    2.60053799910229    4.95917903354279
H         8.01561593979962    2.39694120224337    2.50460183444131
H         5.95971528956722    2.17328362656615    1.15479714091591
H         3.76310662278664    2.17960043789417    2.24283932971553
H         0.79675804794813    1.11195687090691    6.34377380605001
H        -0.69083475348584   -0.77702123696130    5.83594067311479
H        -0.36455344102982   -2.08763390953936    3.76603472244727
H         1.48078316625596   -1.51173602965428    2.23394540436295
H         2.96828994137387    0.35726240588629    2.73529427143501
H         3.99621172012069   -0.12863878961004    5.93501659669488
H         4.60519761430830   -1.07392810901766    8.12247462491051
H         4.33517689823831    0.27687708360741   10.17160879978750
H         3.47585193748050    2.58469209956305   10.01478095736640
H         2.88550633659857    3.53751575243581    7.83396091411427
H         1.16348270578290    5.91750703809439    1.45668075540856
H         2.32316710847080    7.12234976224342   -0.34774033189550
H         3.53738523193991    9.21403274518577    0.14844915581243
H         3.57153640379208   10.09215069833392    2.45701294523682
H         2.34104048435456    8.93609626383512    4.23631277364326
H        -1.43688895858890    5.89280002604856    5.87175833816216
H        -3.80675472988605    5.43118319354768    5.44079677632832
H        -4.68844990078540    5.53459014446190    3.12905843448393
H        -3.18845910910534    6.15596674726085    1.27650536825310
H        -0.82655285383744    6.61982023743797    1.69618090717327
H         1.79792856519154    6.89643383795952    7.07718048836340
H         1.38626371388847    8.71204798187649    8.67609753313511
H        -0.07104994792044   10.60644019982946    8.05806010057002
H        -1.11343223096199   10.67600301735464    5.82213679380626
H        -0.71430704971880    8.85198293243220    4.21968474369093

