46
CSD_code = RUQSOL | q = 1 | S = 0 | Stoichiometry = C12H28ClN4Zn(1+) | MND = 5
Zn        2.33183949254957    1.59185282476971    1.94662398223555
Cl        2.64275242104273    2.56652586302373    0.03912645598932
N         4.27524586951511    1.31587630971584    2.75184838020425
N         2.03944949690189    3.21505220608854    3.35413814102093
N         0.21162463457698    1.48656021736579    2.01342112812300
N         2.56015996447847   -0.48088729042059    1.35365641154597
C         3.86629929320071   -0.91864027161739    1.86132124059735
C         4.82778505206632    0.26689685087910    1.89102848658908
C         5.02128860162368    2.57935158677280    2.67285438734038
C         4.45112023774337    3.63426243764113    3.61713201221789
C         3.10178206713592    4.23146155182351    3.19627077664084
C         2.81935443522151    5.48950330958614    4.01744260657554
C         0.69053969917621    3.67290259244342    2.99781078512295
C        -0.25548756000573    2.47399384409108    2.98888173888932
C        -0.44109902471167    0.18007734785160    2.14346572301770
C         0.12597473425749   -0.83609063900465    1.15402532368223
C         1.47065122358355   -1.45347573691200    1.56092642036850
C         1.70612660939775   -2.74200252632276    0.77152921916862
H         4.33246073857560    0.98720872898180    3.71572954234661
H         2.01995124650683    2.96091543750771    4.34228720092245
H        -0.01348201387561    1.84587629176552    1.08407749750544
H         2.65595106598693   -0.35832657531892    0.34334515952311
H         3.72561097338500   -1.30248254014055    2.87624792167386
H         4.30313138737143   -1.71199286828359    1.24749053115160
H         4.92838583735371    0.67842327758645    0.88348417764963
H         5.81525187928689   -0.06176825382814    2.23452314614394
H         4.96339118814900    2.93925154969449    1.64358698206173
H         6.07655430421248    2.40830001874551    2.92040406935264
H         4.36646812050490    3.22026177973069    4.62628220916378
H         5.17284820121334    4.44992782041567    3.66220669475058
H         3.14079497392422    4.49081254198518    2.13379043052757
H         3.64984381048264    6.18309831449944    3.92784583495415
H         1.92873672089197    6.00246866383008    3.66744589535723
H         2.69469902300350    5.24365169492231    5.07067863475424
H         0.30835430873402    4.42074429440118    3.69895806090637
H         0.73699624481607    4.11367275375010    1.99886791726322
H        -1.27596065803623    2.80811181125226    2.77108648387638
H        -0.25317507423358    2.00368440177495    3.97689888568850
H        -1.52132669913115    0.28070243995420    1.97826595021143
H        -0.28961172935405   -0.17727365711737    3.16555736966962
H        -0.59680781194556   -1.64682492397766    1.06282909263495
H         0.22362871768857   -0.37267836056521    0.16998016176482
H         1.44546782097553   -1.68613375429936    2.63191305044585
H         0.89072389715969   -3.43899193997475    0.94036674686009
H         1.75844179865786   -2.53096002711283   -0.29440123350818
H         2.62536447994210   -3.23329939795427    1.07684836701903

