29
CSD_code = RUQSON | q = 0 | S = 0 | Stoichiometry = C12H9CrNO6 | MND = 6
Cr        1.97156424256954    2.56272589715918    1.31703707909300
C         0.61354696488984    1.86952494559699    0.22044240959183
O        -0.23840287897564    1.45977440342029   -0.43252735253773
C         0.68725231431283    2.39359024719257    2.65890585699568
O        -0.22021116383934    2.22488029435361    3.35035262466600
C         3.03098801672748    2.58526408524788   -0.23211407519610
O         3.55117392229876    2.51936315049154   -1.25188330345328
C         1.61259382361198    4.39223343230418    1.17823688530473
O         1.54575742534075    5.53905306939580    1.25615712150874
C         2.74733404880185    0.92955340654990    1.81605843441382
O         3.34368361484363    0.03733323482730    2.22333772854303
C         3.38618576732070    3.41161819060371    2.41640463442963
C         4.83519798702475    3.73830382324291    2.06856059648311
H         5.47843183572477    2.87967230048999    1.86573093146013
H         4.95883800075302    4.46387454181496    1.26214840122537
C         4.95202899171556    4.32688319473472    3.46863776414379
O         5.85833370812877    4.80007564130919    4.11042634933252
C         3.53628524718385    4.02383986299052    3.70103868156972
C         2.58016255104823    4.20700722469450    4.68297383257737
H         1.60016419830187    3.80712483698047    4.43984925805142
N         2.66449355473997    4.80241329127940    5.85765517555853
C         1.51654463745720    4.90691022011399    6.72186602358896
H         0.65032628678218    4.42520118711186    6.27460608279597
H         1.28098853258826    5.95804366191253    6.90581289432339
H         1.72786505412461    4.43239786161882    7.68305763516352
C         3.85944733726514    5.41844162370908    6.37716623571827
H         4.09593702095782    4.99133158219140    7.35381929943105
H         3.69761431303784    6.49154155987030    6.50281761509098
H         4.70507464526605    5.26572322879157    5.71162518012620

