117
CSD_code = RUQVEG | q = 0 | S = 0 | Stoichiometry = C53H57Cl3NP2Rh | MND = 6
Rh        5.04491708780333   10.21678309659323   17.48200234579044
Cl        5.29505391936399   12.34387556793842   18.45070656852608
P         4.43702990484165   11.30616869541282   15.53279374346623
Cl        7.26971092885843   10.01029681613197   16.84416625714496
Cl        4.43445633456112    8.20898566974342   16.39639241737722
P         5.93793550035113    9.14767297613037   19.32107790050320
C         7.41796660190920    9.78450138884297   20.17098547713560
C         4.19799636756220   10.21170401799271   21.15857518730994
H         4.35325950828056   11.11143872277837   20.57686036424077
C         9.02572161558938    9.43712119467412   21.92553177884482
H         9.40845290262964    8.82902716180796   22.73359249416896
C         7.99475807283734    5.78840549312916   18.27917563566768
H         9.01887447123634    5.51830747543928   18.06306293098690
C         4.83360864938084    9.03375558571999   20.77465255652199
C         6.45526196985313   13.16929902151765   15.47546774482719
H         7.06622956918286   12.33355991443719   15.79008861384152
C         4.65059646842447    7.88882198057890   21.54162402645528
H         5.14546369148125    6.96650266282519   21.27220990925071
C         5.68062765081484    5.19727905515596   18.41503930723298
H         4.88948794574052    4.46891326429532   18.30473347577612
C         5.53001284886072    9.79874497219715   11.31593667256375
C         7.34169674786149    3.43167687106241   17.74179124021478
H         6.46874733225989    2.78469839642772   17.77915551714648
H         8.11336115738585    3.01961173947317   18.39102323206203
H         7.72928680373954    3.43118406586061   16.72340314233587
C         9.14262381220216   11.40223476236975   20.57190169092049
H         9.61607637752030   12.33933831684404   20.31635077129772
C         4.85313441535016   10.64469355673237   13.88958106607309
C         5.75654256099819    9.60642929266483   13.71123435802567
H         6.20302393487742    9.12194982522675   14.56591565134115
C         7.69569633813373    7.08249702458261   18.65637820685654
H         8.47762407551728    7.82594440527801   18.72362259611968
C         5.08519470152499   12.99308831343633   15.30510526011419
C         3.38015610919279   10.23680446887879   22.27211442178541
H         2.89685705249874   11.16031063747555   22.56016951771488
C         4.30502921511625   14.06897221539893   14.89968083428731
H         3.23948274469048   13.95225080227522   14.75796057117142
C         2.06905932277323   12.39523164711218   16.42141426501722
H         2.71573776652897   12.94772970129108   17.09141642764013
C         2.63352230688532   11.51434335454340   15.50030329559943
C         4.30525225913154   11.27536923135934   12.77381292126491
H         3.61950104146213   12.10189547419428   12.90514235343342
C         4.63690406337468   10.84938272633779   11.50448769884156
H         4.20254836112132   11.34146661170538   10.64509178521671
C         6.08489716533802    9.18987005109204   12.43372506578399
H         6.78749516729962    8.37904139553813   12.30487203380460
C         6.37976500598412    7.43664746856822   18.93521580940754
C         0.69924954041185   12.55955371367413   16.47845527197245
H         0.27257939448551   13.25922969030716   17.18434584749083
C         3.17424034330808    9.08928643693561   23.02962266044273
C         6.99547526883751    4.82811405605943   18.15920577045954
C         3.82512123430930    7.92015925754159   22.65048461633423
H         3.68295208210830    7.02137344883024   23.23441130461028
C         1.80144700966357   10.76297312332357   14.67949150898582
H         2.22835771529568   10.04616069152955   13.99298539057382
C         4.89023381569067   15.30268617755661   14.68567967732807
H         4.27430476230198   16.13578977517571   14.37551902467198
C         6.87696911017871   16.83138917671955   14.61716288242166
H         7.82750432629778   16.92057456706922   15.13726662909101
H         6.21721947063886   17.63200639261802   14.94524263614990
H         7.05977168887929   16.96342560587097   13.54989940071526
C         6.25506775669085   15.49148597262036   14.86678672224067
C         8.03428406701020   10.98662265233196   19.85598461396288
H         7.65479050954303   11.59905849096888   19.05346416776523
C         7.02861179850851   14.40673192454400   15.26225636082746
H         8.09165868145527   14.53401857106257   15.40906077417656
C         9.65537749296934   10.63759947903701   21.61099995606862
C        10.87225949737675   11.08141368383831   22.36342546876685
H        11.76947811479990   10.69886182326608   21.87529359504913
H        10.85812415868438   10.70512782973246   23.38394784962216
H        10.93924458138699   12.16657959667091   22.38564721623082
C         5.36962832354956    6.48994518718706   18.78873918776554
H         4.34017062626504    6.77792785252654   18.95629544080131
C         0.43056948656716   10.93044227300396   14.74702244573410
H        -0.21111339217756   10.34623645938883   14.10234354681762
C         2.28684841692296    9.10409352150714   24.23681716553413
H         1.63829304450539    8.22938538706488   24.25003639067756
H         1.67300669244294   10.00161179014015   24.25971520759192
H         2.89172161533543    9.08239528226860   25.14350215179396
C         7.91854656459151    9.01458396588336   21.21990225123154
H         7.43960774733301    8.07928723411711   21.47739280634393
N         2.21358926612873    9.77109596777475   18.50812351705868
C         3.26150278164295   10.08608626243357   18.11975708491867
C         0.97781760402500    9.32715301031904   18.99895368199730
C         0.32898151453077   10.45718282621705   19.80298339712023
H         0.99083819858648   10.74282370697585   20.62333611661469
H         0.19033285653113   11.32686241182430   19.15721801420259
C        -0.13936222909348   11.83582312474955   15.63647050172471
C         0.07840945196698    8.93253786808351   17.82399720122764
H         0.56334470943081    8.14424638636850   17.24440502860681
H        -0.06205047467184    9.79231187190094   17.16743444540956
C        -1.62611011902264   12.02242710464592   15.68120538755286
H        -1.95074294833662   12.62891324776875   14.83538032989701
H        -1.92930262161154   12.52831535780295   16.59523936816655
H        -2.13931554347494   11.06423235204065   15.61787927146004
C        -1.01394857144308    9.96780464474266   20.34203395725187
H        -1.48442020205791   10.77213190224487   20.91786869721300
C         5.87221736262740    9.32591768883708    9.93628311372595
H         5.20617056805520    8.51191940073793    9.64731382745266
H         6.89304239687487    8.95287308852048    9.89753529196790
H         5.75937310151506   10.12798874491718    9.21039174774340
C         1.21089529817344    8.10821187999448   19.89826461565625
H         1.87864694911414    8.37758253701537   20.71807467830451
H         1.68865958426190    7.31664906251238   19.31677487608532
C        -0.78603435799405    8.75732187743042   21.24707976821882
H        -1.73868513072406    8.41641381915336   21.65766610661050
H        -0.13911693557833    9.03558381198523   22.08165782899780
C        -1.91986834444818    9.57811160478994   19.17407330466779
H        -2.89021830091695    9.24859643185074   19.55112108962165
H        -2.08616317344278   10.44365376535470   18.52937850495533
C        -0.13619054878317    7.63316135157663   20.44093272890331
H         0.02787370957830    6.76537989272856   21.08870050287202
C        -1.26461154458522    8.45273032446563   18.37362595020624
H        -1.91278415839722    8.17280796517302   17.53635246653399
C        -1.04735694599614    7.24049403243441   19.27854402965387
H        -0.59385559639335    6.42720035289929   18.70833159258591
H        -2.00689700100149    6.88719614213319   19.66196089346458

