65
CSD_code = RUQWIJ | q = 0 | S = 0 | Stoichiometry = C22H38ClNP2Ru | MND = 8
Ru        3.89996599510027    2.20427145656991    8.55560160679843
Cl        5.57901878776571    3.86481709078939    8.85160170533412
N         4.49110378192416    0.69378597950920   10.04637776490215
P         3.56196739358696    3.10048441664204    6.48745852129796
P         2.46497725674667    3.56156094993091    9.72611110672189
C         5.37282277473269    0.59224993136941    9.00006952183439
C         4.69851087386674    0.18954206420878    7.81940172307964
C         3.32887364766199    0.03645375847307    8.17679638072381
C         3.26814073377521    0.36822135988734    9.54758780495280
C         6.80961760183846    0.77086333892839    9.20013670260420
C         7.72819683232299    0.44904596385734    8.20017787160149
C         9.08137352299296    0.63204036896027    8.40903130970448
C         9.54109666268645    1.13440948081095    9.61461081599020
C         8.63772266767421    1.44729470261803   10.61703182867145
C         7.28476700805773    1.26505876169634   10.41543986965524
C         3.55104348993856    4.94233844845928    6.29512082847760
C         3.98458303698434    5.55358688530965    4.96624415390652
C         4.79628418975255    2.54286860512082    5.23335999396498
C         6.22565202090207    2.80005945836144    5.69062792700683
C         1.97775678718925    2.53683539432234    5.70674723798095
C         1.60854996963245    3.06482711688963    4.32697727016364
C         2.45090147145148    3.13312895357791   11.51945691443353
C         3.84491425608468    3.27212273895239   12.11520936500617
C         2.76704871398519    5.38611401838608    9.76051476530723
C         2.04615879794508    6.20360899867896   10.82657389792323
C         0.65431230436102    3.52430452270295    9.33201336494783
C         0.12167998567708    2.10684657562471    9.18410909570237
H         5.14487876460407   -0.12020379945985    6.88609027648113
H         2.54928290877182   -0.41534539743181    7.57946608243834
H         2.42954626650754    0.22034271132337   10.21813276819115
H         7.38839853053143    0.05075360845504    7.25447457274214
H         9.78093792107028    0.38242625667211    7.62383548607447
H        10.59984211009747    1.28129328895201    9.77119307684750
H         8.99008756387694    1.84068781464820   11.55944087094344
H         6.57638019682144    1.51195424639832   11.19154183722223
H         2.52734913489944    5.25098602586737    6.53700713904439
H         4.21160773352850    5.30197758625306    7.09114285709652
H         3.84905009702610    6.63305992986089    5.01612831601066
H         3.40326082133829    5.18070767492662    4.12767884866746
H         5.03602771277718    5.36157963379666    4.77428275514498
H         4.62833870324538    1.47107039255075    5.08204630832672
H         4.59660863474628    3.05328847760605    4.28795234789131
H         6.41922993569971    2.31012376517334    6.64347576446298
H         6.39995087680961    3.86255382348502    5.84141891676014
H         6.93824754940050    2.42682316557841    4.95629877678365
H         2.04528645305598    1.44417328932107    5.68012229861852
H         1.18992328177982    2.79413607058925    6.42051740650582
H         0.68835886779109    2.58839076231538    3.99111427617212
H         2.38338497675903    2.84756510884224    3.59642775849444
H         1.43785287002810    4.13744366741670    4.35488530333207
H         1.72661812162405    3.77527639806251   12.02968202303351
H         2.11213005469096    2.09815448077600   11.61281793884609
H         3.85405230521860    2.95300068418197   13.15605773700094
H         4.19505880307512    4.30020621735841   12.05938680434935
H         4.54012445048725    2.64881316468590   11.55395224989048
H         3.85052824177788    5.50366828302029    9.85332337291609
H         2.48659541155361    5.74879792715250    8.76765243224536
H         2.38836570621503    5.94833655211262   11.82529510494701
H         0.96805214782847    6.06667105100199   10.77948246700416
H         2.25601304587656    7.25946975900821   10.66454575253992
H         0.10621102771842    4.05705293072927   10.11242013341880
H         0.53108375035901    4.07143466825735    8.39209147705806
H        -0.88914045060361    2.11252422260030    8.77959052885476
H         0.09878484365846    1.60079943151262   10.14651839370191
H         0.76485006470954    1.53886478575985    8.51102019125247

