60
CSD_code = RUQXIL | q = 0 | S = 0 | Stoichiometry = C30H20F4IrN3O2 | MND = 6
Ir       10.44976102119062   10.84207404035715    3.89564113509667
N         8.64373349118437   10.71759372679032    4.78342978581539
N        12.21593483409509   10.86627692496265    2.96049856188493
N        11.36411388260457   12.08516466428306    5.42240068851994
O        11.03422682049724    9.39378757591049    5.40304471501479
O        11.85138429243211    9.23120756847483    7.46471134369634
C         9.57436131971323    9.51347861857223    2.66656913449800
C        10.09484357500533    8.94812202173367    1.50849620664902
H        11.04184889221473    9.26854950612030    1.10210379477161
C         9.39912100141509    7.95632654888280    0.84401558615935
C         8.17509747005618    7.49062859311624    1.28729346271673
H         7.64031718820717    6.71822853411309    0.76016607456212
C         7.65710913274662    8.05288401755739    2.43598277812518
C         8.32325169356406    9.05378138650689    3.14352278088136
C         7.84799825803235    9.70892478069115    4.35721905741939
C         6.69024727870721    9.37487517420994    5.05686864933902
H         6.07522945664635    8.55719147153558    4.72363761689051
C         6.32205546844196   10.07524454503457    6.19464049470257
C         7.14288939328242   11.12972690253776    6.59100487857052
H         6.90211452110575   11.72015270133604    7.46102952191875
C         8.28034501007812   11.40519232220322    5.86351564018475
H         8.92516458123850   12.22106475163895    6.16133721914253
C         5.09522038589520    9.72535231804968    6.96852506962489
H         4.41887233760723   10.57817384556447    7.00705860383000
H         5.36057451061585    9.46800673908984    7.99287110965085
H         4.57590982129300    8.88430131160581    6.51839172404455
C        10.10057285736470   12.30878830631336    2.56622961443862
C         8.93881000355611   13.05750029571438    2.40542198602624
H         8.04547625652658   12.82277412268547    2.96357045851792
C         8.90529585763256   14.11624106976955    1.51816165578531
C        10.00571188912640   14.48252931774242    0.76382691979610
H         9.96898575432547   15.31305291907685    0.07890834046534
C        11.15893132951699   13.74004785440214    0.91679997358890
C        11.23950483980225   12.65964384500970    1.79434629284026
C        12.40879031104937   11.81285802573682    2.01160834372959
C        13.62172969935740   11.89436462542542    1.33292688407714
H        13.77014924070244   12.64576811595524    0.57661624920056
C        14.64809860936814   11.00376769328064    1.61403039342953
C        14.41418651104253   10.03627920607016    2.58999704923744
H        15.17371441645655    9.31367508611468    2.84282211075701
C        13.19282994821414   10.00416903137882    3.22951537439892
H        12.97685392703648    9.25799474615743    3.98197688813157
C        15.95858874211474   11.07748488372988    0.90350386812540
H        16.72159936496138   11.47139536517541    1.57476752850113
H        15.89642416660384   11.72655197372005    0.03461254301588
H        16.27704168813300   10.08633475233082    0.58758343556239
C        11.53067653838265    9.85432555447097    6.46643532253739
C        11.77137681898652   11.38158649899455    6.47973451328108
C        11.57360700982745   13.39844736506746    5.40869077908286
H        11.22213940277545   13.92915227198620    4.53364141552198
C        12.19760785857955   14.06574398368698    6.44666539919849
H        12.34588230352136   15.13255956304822    6.38889259748586
C        12.62196825524216   13.33939808314475    7.55188922028550
H        13.11113138122977   13.83135719962038    8.37948369152873
C        12.40251479004302   11.97499904896889    7.56539678467343
H        12.69943655825159   11.33986789760089    8.38565362188734
F         6.45399411118888    7.58871462368316    2.84279275717070
F         9.92327556199552    7.42506632968483   -0.27877852323133
F        12.22714180235619   14.12132189315120    0.17968108740222
F         7.76842655685843   14.82822786022276    1.38441978984091

