82
CSD_code = RUQYUX | q = 0 | S = 0 | Stoichiometry = C23H53ClOOsP2Si | MND = 6
Os        3.67565400089103   31.42415237086672   16.00574884853054
Cl        5.58841583289033   30.01985929145285   16.33149479226362
C         3.95090975984295   31.02401133364727   14.07735856791627
C         2.21651152004002   32.50665369898963   15.62545639232790
O         1.30475858975267   33.18400620212192   15.39550104048734
P         5.13231290545713   33.28942743428014   16.40670872659506
C         4.20659461827370   34.83364141013735   16.95027946789185
C         6.50879575646067   32.92286883442296   17.63200330276576
C         6.07867069625772   33.95080971969701   14.93471286206601
C         3.22170006339747   34.60633306002871   18.09480683886516
C         5.08754306058509   36.04146424149707   17.26093677367241
C         7.77001253037395   33.78014968549596   17.53481663013557
C         5.99756421582107   32.91319546386222   19.07128534113251
C         6.82174393201840   32.79551929126409   14.27528892212216
C         5.13988090298230   34.61765182733394   13.93613839346812
P         2.28995194490516   29.60444671249345   16.74052932719396
C         3.17042610735742   28.27386977864479   17.72405762159902
C         0.77925669817147   30.20944929226943   17.69735608093448
C         1.47550462373403   28.60637654395994   15.38258473562905
C         3.93026724771138   28.80496637946766   18.93753309261847
C         2.31521428474475   27.07892940335006   18.13983653498401
C        -0.41191844169702   29.25605122477031   17.79059068795844
C         1.13774081468178   30.70023274651485   19.09843437379819
C         2.53068367716406   27.86446267438225   14.57149960046019
C         0.67427456381801   29.54578738527842   14.48890972199946
Si        3.36028571592520   31.39639886989525   12.31927265801820
C         1.93985801130671   32.66521251764302   12.18756678630110
C         4.81894975837174   32.02401162349091   11.24467971128239
C         2.79932610200631   29.78346006698016   11.44659131341667
H         3.63924712594823   31.59849943490287   17.61033418568546
H         4.77167659285533   30.29834247343370   13.94422341073980
H         3.60426317020357   35.05542006846585   16.05881804952803
H         6.77715322203951   31.88981100896586   17.37236758717976
H         6.80133893132475   34.68557872942852   15.30172115653580
H         3.73087746479739   34.49986877119740   19.04788056173852
H         2.62428028711523   33.71523273129314   17.91708457015314
H         2.54844550380606   35.45983574573556   18.16464459280445
H         4.45627946814746   36.92121752129927   17.38429736607444
H         5.79685227395426   36.25069456735986   16.46476016875173
H         5.63300838929142   35.89649032912963   18.18986227231427
H         7.56297746914809   34.83587111845694   17.68903911493486
H         8.28005092125746   33.65525037237330   16.58395101348193
H         8.45771646641691   33.45920152618584   18.31689159419616
H         6.70636697799622   32.38472531010510   19.70720375179883
H         5.04093052508052   32.39977592593596   19.13574576684081
H         5.88676176005415   33.92391716669031   19.45875779296187
H         6.09874196759897   32.09782074277365   13.85507415628661
H         7.43509050224028   32.24924537442072   14.98934567440222
H         7.45989684237307   33.15699172505028   13.47000219049297
H         5.65645694485748   34.77042570179922   12.98979170863751
H         4.79653446806311   35.58863668097825   14.28505235880566
H         4.27530883811802   33.97688911859792   13.75815123001387
H         3.92801669235599   27.93863664228860   17.00212711909822
H         0.47316818931352   31.08618733534233   17.10903658716226
H         0.79816077653666   27.88354970274193   15.84696573916824
H         3.26246032785286   29.08035487202126   19.74855579654725
H         4.53322870485113   29.66540045553955   18.66464152889806
H         4.60522582814776   28.03069633535235   19.29984671899208
H         2.97297615758366   26.29042524901212   18.50451735801208
H         1.73258413178944   26.67005319280067   17.31885742349161
H         1.64412178301755   27.34543601599048   18.95316645062010
H        -0.14977267605961   28.33207993481909   18.29667572542811
H        -0.83029544235417   29.01355071717220   16.81864742693491
H        -1.19571523883716   29.74172985248109   18.37166567103811
H         0.35937424084179   31.36615550112490   19.46831446789849
H         2.07681398443400   31.24814097720734   19.08728517825817
H         1.22117680087052   29.86592311299293   19.79069563236908
H         2.08985277860985   27.44981846097165   13.66651576720821
H         2.97299895832898   27.04780187102585   15.13730960352528
H         3.32149699567243   28.55457212005052   14.27794718198382
H         1.33552406883302   30.30687417171631   14.07662025333219
H        -0.12127106813074   30.04829825007765   15.03396796320767
H         0.22341165886272   28.99143198899204   13.66682156575579
H         1.03874157256115   32.32083185555598   12.68492603291291
H         1.68923058697957   32.84524439134395   11.14598951141700
H         2.20388883436148   33.62145198374471   12.62835683719607
H         5.12059075694042   33.03389160429202   11.49817156007925
H         4.53319597877977   32.02247413805053   10.19667315079267
H         5.68984197635976   31.38297650512567   11.34520515596131
H         3.52723224032509   28.98836681569442   11.57732652047171
H         2.69627149200192   29.95802686310293   10.37950051149635
H         1.84452330324598   29.42187785456028   11.81119013996573

