81
CSD_code = RUQZAG | q = 1 | S = 0 | Stoichiometry = C29H45Br2N4Zn(1+) | MND = 5
Br       17.37600976204226    7.49904405633912    0.95231287971305
Br       20.35405089387325    6.52823878548231   -1.92742688277703
Zn       18.58339750239337    5.96379030640537   -0.45030361011230
N        19.24059472130736    4.51946311387327    1.03314593028476
N        18.21815677091967    4.08853639002764   -1.31380102671683
N        16.97783107973788    6.21016777455976   -2.18365236552356
N        14.63503479392900    7.89063449327940   -0.79344586245095
C        20.24798659714524    2.29207430312363    1.24260599083515
C        19.49518666673724    3.37039815534926    0.54112589470289
C        18.99474266338872    3.12848084607608   -0.82314432214033
C        19.31616138040552    2.00482165075216   -1.58347415539181
C        18.80899698917180    1.91505883406581   -2.86884910979770
C        18.01385552309993    2.93481319610398   -3.36902307985129
C        17.74105187076155    4.03118366380300   -2.55200740606756
C        17.01110930688788    5.23369821659256   -3.00436937440943
C        16.44675581316580    5.20370856396583   -4.38854535934390
C        16.42625110462480    7.49871003395700   -2.53898983321908
C        14.92804946934685    7.64468341331239   -2.22969792746971
C        14.24736554606821    9.32147167069931   -0.51639422180540
C        12.92513085280745    9.70580866961912   -1.16623076386084
C        15.37112517674778   10.26759793139693   -0.91604114110866
C        13.69703089230528    6.86989776852733   -0.20804918509042
C        13.32379675300889    7.21403921920937    1.22891014715160
C        14.36681163597732    5.49993864812815   -0.20965963263642
C        19.58806619620292    4.89277407061394    2.35008056751303
C        20.87050819002313    5.36704133276111    2.64562297808326
C        21.12511774884274    5.79433324790475    3.94183670208790
C        20.14850321648569    5.74412259023549    4.91634865327089
C        18.88605516048763    5.27533774068770    4.60557976899105
C        18.57827950685155    4.85424385939200    3.32136740195891
C        21.94665866504214    5.47463106273937    1.58994823194511
C        22.27342277142892    6.94764050758652    1.32891129549224
C        23.20584063250931    4.70740785960363    1.99678154008625
C        17.20682433394565    4.30737609299109    2.99003830100290
C        16.08218185466254    5.13764433531181    3.61033636580775
C        17.10557382213912    2.85160692371836    3.45457343466427
H        19.71115426870071    1.34673068445215    1.18764746798762
H        21.22089620702986    2.15919552608372    0.76826835458453
H        20.40690380196381    2.56022489985677    2.28530334298800
H        19.95988473163857    1.23452427909351   -1.19326948043823
H        15.52837543968354    7.76493458903624   -0.25176381504262
H        19.04628592371180    1.06305654578878   -3.48686664591007
H        17.64153268985816    2.87879655897631   -4.37765906457170
H        17.26575365002334    5.21449734213974   -5.10793869257173
H        15.87661765023196    4.28922730198620   -4.53828093981600
H        15.79882414170314    6.04962426777304   -4.59455568037377
H        16.58262473234824    7.71528416343815   -3.60086100426505
H        16.98451784475172    8.24300248424349   -1.96748688505735
H        14.54722035060872    8.48495603219011   -2.80822446131074
H        14.39337246148659    6.75298821158450   -2.55884500362966
H        14.15132537895087    9.38925922499019    0.56716619484594
H        12.12119469404357    9.03220526437420   -0.88542921875937
H        12.65291432134950   10.70146719124244   -0.82819501699415
H        12.98831007420915    9.73946695485477   -2.25064614582056
H        15.52655000117572   10.31023368292532   -1.98986388679989
H        16.29679387278528    9.98923927945270   -0.42060719399198
H        15.11284940854597   11.26867075975778   -0.58363092609674
H        12.80122138756390    6.84981029731041   -0.83714538777282
H        14.21899482442136    7.40926864333933    1.81420427739768
H        12.81455243673950    6.36165250650729    1.66915618501011
H        12.64836709006938    8.06020723422851    1.29855127646067
H        14.72624328644285    5.19750535280094   -1.18832718889981
H        13.65114197928710    4.75321449557167    0.12190765475470
H        15.20298687292190    5.49998027213066    0.48331703355911
H        22.10449353771710    6.17164516692684    4.18870005857144
H        20.36918395353782    6.07491626962144    5.91913082627229
H        18.12926236861684    5.23922093131242    5.37182283962851
H        21.58279208820274    5.04216303979395    0.65103065365399
H        22.97213630769271    7.03332252464884    0.50055913381354
H        21.37281797226562    7.50283987896855    1.07109084731882
H        22.71481137863174    7.40983473261989    2.20779789991069
H        22.97224171787103    3.67189887205651    2.23824596661508
H        23.92318814089456    4.71969802137704    1.17975177402383
H        23.67502244575455    5.16123435799455    2.86506905352748
H        17.07913112271232    4.32461679170044    1.89929798883982
H        16.21967664763604    6.19380511161269    3.39359266593060
H        15.12382175192402    4.81712610634651    3.20693520465975
H        16.04815469246314    5.00668305321762    4.68750626484930
H        17.85319845850989    2.23030626799226    2.96620284974161
H        17.26037341539651    2.78964778368513    4.52885641873629
H        16.12086861344272    2.45059771583992    3.22446358063823

