82
CSD_code = RUQZEK | q = 0 | S = 0 | Stoichiometry = C31H44FeN4O2 | MND = 5
Fe        3.33186300847464    7.74333059528092   20.80487878365977
O         3.38905555334618    9.76420203486978   22.91869924326895
O         6.16470155920715    7.19053899759866   21.16137641591087
N         3.57466533667803    8.67218573864694   19.04852168061910
N         1.61654278477623    7.78120581629578   20.18492487662458
N         2.51471095869658    6.20863126383156   21.81792295351599
N         4.38523755227825    3.03567581684250   22.52071069884196
C         2.40400711892620    9.92532853467084   17.23302387004120
H         3.40598341691984   10.12539468940767   16.86085166230357
H         1.92003314954791   10.87319012327136   17.46912093896394
H         1.82611729873507    9.44006627353718   16.44697192739378
C         2.45974961955882    9.05512793274291   18.45208276765041
C         1.29360782507427    8.52655946724760   19.06976667538158
C        -0.02220774657501    8.63890856343246   18.63720097045553
H        -0.25568179616081    9.25055093198602   17.77986570525304
C        -1.01960644426724    7.94290680372371   19.30073233827660
H        -2.04630906900326    8.02128744178592   18.97796617519491
C        -0.68324946718447    7.10491673965513   20.35570742142496
H        -1.45118111585254    6.51398752905753   20.82999875051770
C         0.63714747123694    7.01126426910535   20.77629421166895
C         1.19702180608761    6.13856469510078   21.75744981449099
C         0.35150751254581    5.25687326259363   22.63147263468508
H         0.60441326324566    4.20607806856733   22.49205335940235
H        -0.70008166494381    5.38735489863205   22.39960677409521
H         0.49827062203057    5.50740233933018   23.68287475460959
C         3.23360716612151    5.30128193739382   22.67638504909054
H         2.61968961338660    4.94211611175579   23.50730029401311
H         4.10130463368815    5.82339743771009   23.08000553379139
C         3.71576230123592    4.08917055399881   21.82459490471641
H         2.83044541054691    3.67237907058387   21.32531307289470
H         4.37322732692240    4.48206490900591   21.04796426776895
C         3.61811126787951    2.28037602912930   23.48971344724117
H         2.56578022689956    2.51373909987971   23.29065102383314
C         3.90905368581470    2.63133845172101   24.95586116837008
H         3.78972630575612    3.69770310419518   25.13040294640226
H         4.92241574206896    2.34874501600009   25.22868477936806
H         3.22016055966418    2.09593774862761   25.60527113255651
C         3.79871766730628    0.77362978041589   23.26327492336315
H         3.61101654170149    0.53206048687103   22.22046871797953
H         3.10155439115336    0.21621151804203   23.88383577441380
H         4.80723107277878    0.45628500446516   23.51363316146936
C         5.83188485007297    3.04455675800342   22.61625794182219
H         6.09630604955052    2.20461221904524   23.26501154812336
C         6.43506744961287    4.31658985418057   23.22431302678749
H         5.97931185992234    4.54347456980288   24.18457365027580
H         6.30208244181352    5.16579686091233   22.56110256568975
H         7.50240571451115    4.17368128329416   23.37780691716716
C         6.45924600690947    2.77548224690047   21.24298645197479
H         5.99337568121418    1.90763691544171   20.78360895684751
H         7.52388744955792    2.58561948459200   21.35251635376931
H         6.33468073345407    3.62826170235738   20.58128328067510
C         4.82704620995049    9.02524322980002   18.49884361291211
C         5.49255563368831    8.08855615546562   17.69390703104991
C         6.71452720001423    8.43369455025033   17.13738846406812
H         7.22954248543458    7.72893695943533   16.50252532645080
C         7.28537603829328    9.66775796700056   17.38406339313608
H         8.23676894644768    9.92284268525994   16.94096631613240
C         6.64231029693483   10.56805914702974   18.21098091106055
H         7.10434551379584   11.52160171319803   18.41705587594352
C         5.41068410651542   10.26874255293460   18.77546236142705
C         4.89098448649130    6.72621783461312   17.43507727040386
H         4.02997714846885    6.60096953240791   18.10495912259701
C         5.88681432982982    5.61073809187265   17.75702125420833
H         6.29152644510697    5.74991938936984   18.75647256747306
H         6.71286225574514    5.59870584805920   17.05042017658414
H         5.38979962833569    4.64349650892771   17.71405755932949
C         4.40119463165708    6.62163333572345   15.98928298996760
H         3.95073606182576    5.64704353970892   15.81271323035575
H         5.22812109713938    6.75052254133835   15.29408496348519
H         3.65767778676476    7.38836371264844   15.78232185602900
C         4.74834438939271   11.25091045504314   19.71259363016916
H         3.78526347652211   10.83538915931677   20.02879322106148
C         4.49519969489639   12.59977864790478   19.03671961241500
H         3.90413611587863   12.47368109288398   18.13233250750767
H         5.43153597362761   13.08239249798036   18.76744682091803
H         3.95516029523855   13.25861734388717   19.71328961643273
C         5.61240654298832   11.42584457660539   20.96372619593959
H         5.81275442133658   10.45596003077919   21.41412832785758
H         5.09678994650344   12.04568502646377   21.69364180341422
H         6.56178582316087   11.89600685941313   20.71865875589943
C         3.37766893885236    8.99014675507542   22.06530777902453
C         5.03043337627554    7.37166127812801   21.02286115213449

