80
CSD_code = RUQZAE | q = 0 | S = 0 | Stoichiometry = C26H48Cl2OOsP2 | MND = 6
Os        4.68949245434144    7.22682410482005    4.15836671339503
P         2.58264409070119    6.38301816787198    3.15920612599944
P         6.33964879978664    8.46566418487328    5.50917743556051
Cl        3.23084342705909    7.68526611207330    6.04434964111278
Cl        4.12420823964028    9.35822702506713    3.30433337126522
O         5.23477618298955    4.47127305037825    5.24075321550827
C         5.87003746682545    7.10553950306378    2.59171721736906
C         5.07090231570290    5.53883518641894    4.82690879782114
C         2.85029917125008    5.27811044795253    1.67033160311421
C         1.40797948994983    5.41167446038821    4.25867980322301
C         1.50366739691198    7.75813869254531    2.47914649340339
C         3.52055930425082    6.04024787073490    0.53331533145958
C         3.70690358594349    4.07450066067498    2.04812844173971
C         0.43024821474458    4.51309130239254    3.50228451999879
C         2.10032778202199    4.59292159361238    5.34541377027080
C         0.39768710549173    7.37787939894710    1.49522235033829
C         0.90599830812408    8.59793221236511    3.60843613378135
C         5.67598924561041    9.95823853443069    6.44024785223954
C         7.88456595707532    8.96566457577129    4.56207997384843
C         7.09048880184151    7.42208556596713    6.86977164631472
C         6.34551956660113   10.25133284408337    7.78404839734030
C         5.67054463476295   11.23306568629721    5.59764788829715
C         8.99700595260151    9.58394326147343    5.40619896718521
C         7.60019519042002    9.85971083565223    3.35389407009631
C         6.00140660369311    6.81406121013322    7.75168877946526
C         7.98872211447939    6.32235147517573    6.30778480371338
C         6.98646418650832    6.34177264981715    2.11824767091418
C         7.71820522301754    6.83221455112148    1.01598359306406
C         8.82681143728045    6.17116375853253    0.53391086140339
C         9.24250063249894    4.98625086985208    1.12312492523090
C         8.53211335957757    4.47161079216342    2.19826694214522
C         7.42614017874321    5.13290054283762    2.68758895715162
H         5.71150103736379    7.94791634355303    1.90614976208847
H         1.86616031365725    4.92900625768584    1.34362251347700
H         0.84506967670182    6.20370798707456    4.76749655456380
H         2.23114266794591    8.38677825863380    1.94894981253271
H         2.94406247112954    6.90782242720102    0.22382527871378
H         3.64820391932511    5.38658033692339   -0.32861911135124
H         4.50540050659716    6.37653482561379    0.85295236444513
H         3.24169490731912    3.47710171803500    2.82749127099125
H         4.68012921457230    4.41030000480384    2.40259950849250
H         3.86055174897196    3.43735370905161    1.17806450847370
H        -0.07038743250057    5.02705476141676    2.68845845487890
H        -0.33375649701345    4.16605910509000    4.19717543673393
H         0.93433492482611    3.63610265477009    3.10271200028637
H         2.71192037884405    5.23189281093077    5.97626424024355
H         2.72289038494815    3.80469683577370    4.92994075304782
H         1.34475784102157    4.12862502803311    5.97818446197942
H        -0.45023728765251    6.92954623860295    2.00780273134662
H         0.73370450744863    6.70598939297184    0.71035601988331
H         0.03997880606326    8.29061172582110    1.01934562377286
H         1.63663202732523    8.79147493446542    4.38983182970124
H         0.04452093108571    8.10519026138963    4.05649575406991
H         0.57920210541987    9.55833566227892    3.21369198872988
H         4.63121651297449    9.68113234887235    6.63195323648964
H         8.22902683559668    7.99445205733276    4.17946222414427
H         7.69745883235779    8.09562075786172    7.48272293499009
H         7.40885473544597   10.45148394644294    7.67326143779725
H         6.20874250398472    9.45011517741545    8.50384323894248
H         5.88283718742085   11.14565424276172    8.20053024591262
H         5.05005906410072   11.98044488477129    6.09082549769930
H         5.25339821267999   11.05439811122790    4.61136775910955
H         6.67187844840804   11.64463200228972    5.49584485577925
H         9.29167020574899    8.95160982501487    6.23901715776444
H         8.69999768895683   10.55487258403672    5.79400174060603
H         9.87283761440112    9.73422669718360    4.77536496345747
H         6.60398290978522    9.68565664822787    2.95760992815540
H         8.32516930484106    9.65924492111881    2.56642648974495
H         7.67391633392442   10.91077285613397    3.61754815632295
H         5.24638883274235    7.54575427322102    8.02796614557981
H         6.44095796250383    6.40637463130067    8.66124111141549
H         5.49345126384074    6.00808716996268    7.23052330652898
H         8.93807228214516    6.71218546379260    5.94962999873815
H         7.49653603895627    5.81250008824064    5.48284714173142
H         8.19852913249865    5.58993962301656    7.08560892812289
H         7.40183560778700    7.75419275113086    0.54838987341806
H         9.37051915511126    6.57511125420683   -0.30783690947446
H        10.10884748532074    4.46497312319101    0.74443528767338
H         8.84630509390309    3.54464909817744    2.65511012501319
H         6.88173718083052    4.70982305526214    3.51395707355396

