52
CSD_code = RURCOW | q = 0 | S = 0 | Stoichiometry = C22H21NO7W | MND = 6
W         0.53161852124072    2.83243138582957    4.28043305194046
C        -0.77360850911909    1.84110282739170    5.42111532417710
O        -1.56664138903217    1.29469320105676    6.03933276035932
C         0.16489650632757    4.50988457908788    5.26314462594158
O        -0.04976906401248    5.48736595620522    5.82586619296356
C         1.77417080571331    3.86240826487507    3.10264323651391
O         2.42429005308670    4.56189227406619    2.47259535665886
C         2.04800461768194    2.47854859286468    5.53483917388844
O         2.91337948705764    2.41982810436398    6.27804703816976
C        -0.95514147369270    3.28994510970215    3.03023395525423
O        -1.81086435885015    3.64213112943137    2.35870618818176
N         0.91616501814465    0.96470142038896    3.20595292693322
C         2.21358219766473    0.32408993079559    3.02354273416991
C         3.05224576603367    1.24635025696391    2.16267393312462
C         4.14877966665585    1.85349954067376    2.58467325469396
C         4.97216029468839    2.77058169118043    1.75159959511734
O         2.85441006269575    0.12555505508951    4.24936854570021
C         2.20047615080073   -0.77282784047760    5.13766804813286
C         3.10194071850814   -0.97092926864361    6.34376366310959
C         1.89730527239882   -0.94491009828254    2.22919362894109
C         2.89783672568754   -1.90506695532261    1.82729792825909
C         4.21694627483109   -1.79075900034169    2.27998853140754
C         5.17014996528419   -2.71510132998766    1.90079086271301
C         4.83343960417292   -3.76650235154194    1.06342139349497
C         3.52996521806322   -3.89095634285674    0.60718349882482
C         2.57068347354659   -2.97366045702682    0.98371082879117
C         0.56598836656473   -0.92802115389601    1.97498464251014
C         0.01787709076622    0.24553450322354    2.61108132523845
O        -1.24803029055856    0.64320066173154    2.66645070976657
C        -2.24690984366670   -0.12525869560472    2.00355135117927
C        -3.58070814748598    0.55859147802853    2.24956821910571
H         2.66808019304909    1.38402612427101    1.16084910368855
H         4.48775409108427    1.68729768102849    3.59751163896143
H         6.00101289748599    2.41539313588715    1.70825248168989
H         4.98378096746534    3.76254542565151    2.20131607744596
H         4.57701299509882    2.84766375569360    0.74202437896998
H         2.02395533349147   -1.73327720286979    4.63097677257482
H         1.23023447103268   -0.35668225637201    5.44583441892029
H         2.62124464788247   -1.63394022618602    7.05739330889956
H         3.29746934206002   -0.01497446559806    6.82003171900959
H         4.04849869828857   -1.40524082054245    6.03299194574742
H         4.48202284663376   -0.97653582918526    2.93478028998540
H         6.18379672377322   -2.61494224470681    2.25947784815821
H         5.58159506867494   -4.48608782712908    0.76651251347705
H         3.26296266259927   -4.70850990086098   -0.04621061513255
H         1.56076915789637   -3.07938891234711    0.61907363673565
H        -0.00540732697013   -1.64678740962502    1.41921516360616
H        -2.25740690404837   -1.14571498575641    2.40820061403556
H        -2.02759907424457   -0.16962913511949    0.92889578109696
H        -4.37778842985853    0.00170047263575    1.76569085372562
H        -3.55733935515961    1.56976108636403    1.85354151490971
H        -3.77638778742695    0.61178106580390    3.31701802823173

