52
CSD_code = RURDAJ | q = 0 | S = 0 | Stoichiometry = C22H21NO7W | MND = 6
W         8.22476191222676   16.85375147970764    1.38511633916626
N         8.73091749840676   15.95421407829277    3.35380646601326
C        10.13487463477958   15.92160827916330    3.74719368015403
O        10.92888738266410   15.28020367256888    2.80404308617222
C        10.68686362133736   13.88470651502451    2.66513670442964
C        11.40116337096647   13.40642614160044    1.41324169626812
C        10.59877588229902   17.35594128264422    3.91918548033750
C        11.71321845550929   17.83605822138966    3.39483751330032
C        12.16428517377471   19.24646094901475    3.53990904683281
C        10.10484570694033   15.31010851680491    5.14986394364105
O        11.25295062197505   15.05975314050519    5.76476329036714
C        11.20678499917086   14.70121100706299    7.14190834958941
C        10.94737244374241   15.90723850139037    8.03470711425121
C         8.80794286288801   15.18712363807539    5.50927975370728
C         8.01626084038271   15.56783941789854    4.36350911313716
C         6.55451977807088   15.48188378246734    4.33516559791999
C         5.91943738916223   14.69602504873919    3.37576117212714
C         4.53980050227899   14.60528848768092    3.35762467329701
C         3.78472711613314   15.30597552996819    4.28334365367846
C         4.41204797843265   16.08069958184889    5.24506619119740
C         5.79190697262625   16.15999539949660    5.28155134619664
C         6.31982748538043   17.15402923408175    1.90998106875596
O         5.23852314179031   17.48833960727575    2.08026149603472
C        10.11853667825801   16.73525499451883    0.75360159931024
O        11.14358676780839   16.80381426496031    0.25618081192732
C         7.79030505147202   17.68478698472416   -0.35321957738365
O         7.53444528800167   18.17791976595225   -1.35779959323877
C         8.61882270024890   18.67148866554771    2.11013244160183
O         8.83306989318423   19.74846440154736    2.43245313044979
C         7.88017272815737   15.05264894346574    0.59510824229724
O         7.72109792129516   14.04385801731805    0.07610647018085
H         9.60735862648829   13.69542206737387    2.58326775543351
H        11.06901614343010   13.35777512203258    3.55191907530363
H        10.98881525755763   13.90255972078807    0.53870495645198
H        11.27774167209361   12.33245831152989    1.30539965387059
H        12.45960035904126   13.64223852433803    1.48003879715193
H         9.93971103337059   17.95936917199992    4.53010382361121
H        12.34333597250460   17.18410461295798    2.80770565664744
H        12.24354020411120   19.70574785268430    2.55544077115933
H        13.15150308151663   19.27932483645748    3.99933284625654
H        11.46842487661265   19.82466614213778    4.14227334693812
H        10.44631384200701   13.92776153007738    7.29939231837436
H        12.19279434311000   14.27891356280961    7.34827262764362
H        11.71269510790064   16.66126140937835    7.86983310136834
H        10.96914499237117   15.60177165349932    9.07675903438049
H         9.97676776565018   16.34531348418439    7.81538302201959
H         8.39066969956437   14.82965821782849    6.43131296953078
H         6.51286287950258   14.14070389989787    2.66404758045454
H         4.05318793829539   13.99437342759444    2.61229911626685
H         2.70706982446510   15.24755850588317    4.25675111960104
H         3.82411292867197   16.62601718670845    5.96831021057936
H         6.28370065236239   16.77008320907701    6.02563191523471

