94
CSD_code = RURDIT | q = 0 | S = 0 | Stoichiometry = C35H54IrOP3 | MND = 6
Ir        1.25953957463596    1.76480608327579   11.09795591704410
P        -0.93096922317436    2.58654315540596   10.99429696880100
H         1.09692149425539    0.71035292143834    9.94448283968432
P         2.31928859878110    3.29725677124030    9.71142685496504
H         2.72409073757894    1.37626332639264   11.25383507373858
C         1.58509058032547    3.44066388864524   12.57487027458177
P         0.99552351439303   -0.15105056755970   12.47019597699746
C         5.15346272535176    1.68802586190703   13.80508779958037
H         5.77871161402633    1.79197177429194   12.91875831010035
H         5.15923497948989    0.63750644356243   14.12016859159593
H         5.56647475958031    2.30591997498852   14.61087054434689
O         3.88106838438334    2.12419187560508   13.42001310012622
C         0.44166499549534    4.44491715030716   12.50912248493377
C        -0.76413503106111    4.18931520530103   11.84446324805821
C        -1.78709320307918    5.13484545187414   11.84380047121055
H        -2.71818708246155    4.91782010446284   11.34323916341556
C        -1.62891736628931    6.35328553382941   12.47028605502854
H        -2.42659887922412    7.08212582112122   12.45544179292347
C        -0.43572314105281    6.62645523794145   13.11889668833543
H        -0.29483503025073    7.57507265349302   13.61728444414972
C         0.57219755620704    5.68393566209758   13.14023006670094
H         1.48407703202174    5.91752275504337   13.66697063625364
C         2.83577455277350    4.21865133186591   12.21575467574259
C         3.24507047708638    4.32313995925862   10.88466521476077
C         4.33643024493094    5.10837765203741   10.52925576804873
H         4.64954104754388    5.17216798964969    9.49714805789624
C         5.05011995123448    5.79015331555974   11.49494042379063
H         5.90258623187832    6.39421484977659   11.21812103720692
C         3.58475928626642    4.90260956534811   13.17520038540106
H         3.32396258163590    4.81535989376260   14.22202062504394
C         4.67614523902613    5.67195491850856   12.82394064813579
H         5.24039032001793    6.18570226062728   13.59031262524128
C         1.70813748328229    2.89121417504420   13.95643549543352
C         2.89393206422840    2.23099439329158   14.36339142241700
C         3.01579666184310    1.72839127253626   15.64802915657148
H         3.92621440070387    1.23688808341722   15.95867263709516
C         0.81884417578154    2.49936542106054   16.18815822831899
H         0.00747450285481    2.61956470278270   16.89222057438947
C         1.97926833393795    1.85478461770611   16.56357824162791
H         2.09461674239919    1.45733564538488   17.56130285845841
C         0.69964847900874    3.01793179077220   14.90874281234771
H        -0.20156433949371    3.55415937723657   14.65309074596932
C         2.59194518978934   -0.85457771288656   13.05177882545684
H         2.45199487816860   -1.89217810077378   13.35580804927009
H         2.94129271333274   -0.27664087322089   13.90141260074144
H         3.32510917829984   -0.79767150668489   12.25176223842100
C         0.43812092848070   -1.63727345475583   11.52683844701802
H        -0.47918549577847   -1.43624710585442   10.98181423362535
H         0.29214361947774   -2.48383516594148   12.19687918577583
H         1.21398576623382   -1.87010356031239   10.80046836333089
C         0.06527262050497   -0.41746461597288   14.04655864171907
H        -1.00764038285452   -0.41897330466256   13.87573172562562
H         0.31504269635483    0.37268701265949   14.75189817641582
H         0.35705952104698   -1.37679248574306   14.47267672240401
C        -1.64523056152599    3.06276425473734    9.30196544281072
H        -1.18332397538874    4.03705430288914    9.09681028338940
C        -2.47198343666132    1.95556818619825   11.86138606030875
H        -3.31563667907822    2.56760983361059   11.52920353823771
C        -1.15748178437013    2.06214513733725    8.25418296174579
H        -1.37407754918207    2.42570284691406    7.24968117605583
H        -1.65487850810646    1.10250379692394    8.38121520212479
H        -0.08674959649393    1.89414332093347    8.34666982575439
C        -3.15671016623591    3.22286137019513    9.13761190686864
H        -3.35678937404165    3.54478630818416    8.11504210918211
H        -3.58198207887231    3.97369451119221    9.79806564254453
H        -3.67883087061165    2.28158784579863    9.29277269009873
C        -2.72442720815043    0.50623105992841   11.46793303499056
H        -2.77234549032772    0.39537841019330   10.38605628870798
H        -3.66153910937816    0.14680405555374   11.89377948799009
H        -1.91350766912140   -0.11785451970460   11.83464345456687
C        -2.34102447392466    2.10611391670927   13.37250683221346
H        -1.36361644930920    1.76976867796726   13.70799626563910
H        -3.10656214229593    1.51973902877890   13.88076185296215
H        -2.46147235461209    3.14670541219136   13.66838871984394
C         1.57415711304176    4.58138041667753    8.52363006124785
H         0.72993437059292    4.06461133944792    8.05405270844309
C         3.67634840871955    2.58577494436943    8.63416316229320
H         4.15457646119531    3.43342430613300    8.13343789938770
C         2.45836506143083    5.12458640103753    7.40234550136604
H         2.77304215937558    4.35194827855631    6.70676395993787
H         3.33452543533396    5.63326773102292    7.79618489172895
H         1.88213072375025    5.85901859723496    6.83845926104381
C         1.04353519228379    5.75740404381908    9.33967404615440
H         0.43483226573061    6.41166675243057    8.71515418129389
H         1.86802179697746    6.34257232613999    9.74402038287595
H         0.43567261321517    5.41883520940015   10.17401396322400
C         3.06985815310028    1.65117473860219    7.59344206196784
H         2.31659370222127    2.15637384393915    6.99163825410398
H         2.59428609454465    0.81284681993459    8.09797687468120
H         3.84359583986890    1.26728608170671    6.92980395277957
C         4.74445876527668    1.86111130176027    9.44220195277981
H         4.34186585035118    0.94372404211400    9.86234258998790
H         5.10257426759775    2.48478073894087   10.25884884040099
H         5.58641794318251    1.60886690411202    8.79796653195693

