112
CSD_code = RURGEQ | q = 0 | S = 0 | Stoichiometry = C52H42BF15OZr | MND = 12
Zr       -5.93116518884653  -10.99147618651395    5.23863376825514
O        -6.80942182719477   -9.24336319042760    4.71567295119987
B        -2.95104865492417   -6.78441820581477    5.06954881988070
F        -2.48330781765545   -5.89624632761260    7.86755648982142
F        -0.94607977544606   -7.11192661265533    9.66610281445287
F         0.35670961904152   -9.44340325123526    9.04378544229668
F         0.07312465684255  -10.49187569067841    6.52432197604469
F        -1.36044678429853   -9.22345338743197    4.68686665629006
F        -0.88616383096036   -4.83615656078214    5.49435222719030
F        -1.14529971359022   -2.22018652464870    5.94449853721373
F        -3.63369784453330   -1.07559174987375    6.08397100890548
F        -5.84539545105769   -2.66370031582577    5.71666125551760
F        -5.60235373213111   -5.23625300469332    5.23998058888024
F        -4.48094745036742   -6.17209737843206    2.66058826216069
F        -3.57920435820830   -5.90555572174633    0.19019577393981
F        -0.90268004220060   -6.20872760128454   -0.36621840580733
F         0.81650084946790   -6.76837531427819    1.69176894178009
F        -0.06273817601618   -7.04414146046681    4.16252952938825
C        -8.05837198755719  -10.54720977066705    7.54497299484141
C        -8.69501447031174  -10.71361606746447    8.76682807692064
C        -8.14455238397680  -11.53951342596095    9.73146439764646
C        -6.96508410680607  -12.20687173623951    9.45252458299570
C        -6.33491145485583  -12.02723459891464    8.22816322459960
C        -6.83847464423372  -11.17379021853177    7.23183002941017
C        -7.25869942925227   -8.07282989569638    4.59506855532447
C        -7.44944704193800   -7.48926314502683    3.22435008349485
C        -4.36488505315351   -7.67263253364747    5.23884624416201
C        -8.43793968606394   -6.12387597450305    5.63342224600018
C        -8.76001130452864   -5.38289016227056    6.75285869699435
C        -8.30631431463987   -5.76773476441082    8.00514916582303
C        -7.52743859899993   -6.90850032119842    8.13770895829110
C        -7.20492449742620   -7.65768561286933    7.02631127206417
C        -7.65284715157794   -7.27695491342635    5.75281327988897
C        -6.37413777093191  -13.34592943930508    4.60790987571393
C        -6.11053043827838  -12.66687952861843    3.37949300184578
C        -7.15308666892896  -11.71683468852900    3.18074006642831
C        -8.07761332964847  -11.83318190989384    4.25440981384157
C        -7.60688562732777  -12.85383358115070    5.12994293781715
C        -5.65865725007877  -14.55936423923794    5.13910129784066
C        -5.24914289673386  -13.17790251967026    2.25614563634417
C        -7.36811507327710  -10.94042905929443    1.91101835308167
C        -9.41535581428431  -11.14869611836375    4.32348338434042
C        -8.40653089672423  -13.54218694951481    6.20173808852827
C        -4.22371933753889   -9.15468740061486    5.30490170803376
C        -3.93945195054097  -10.01896862874193    4.19799877064061
C        -3.53816678971755  -11.28315223760951    4.70592697094633
C        -3.64534760139614  -11.23543955560663    6.13370225537193
C        -4.07376889068843   -9.92850893706030    6.50332631208999
C        -3.83585909953099   -9.58639504293660    2.76291943723699
C        -2.67362487826134  -12.28425516274180    3.99431946848550
C        -3.01829360220827  -12.25731194320796    7.04179150513041
C        -4.10084630947173   -9.41678782801846    7.92101383666576
C        -1.80738504439975   -6.99004563662595    7.46186691016397
C        -1.02940115966187   -7.62006499250563    8.42764622432958
C        -0.37031506029479   -8.80134803975394    8.11905112981879
C        -0.50939372650041   -9.32218977786235    6.84053223005121
C        -1.27729698677200   -8.65124112082706    5.89971253304160
C        -1.94219401670193   -7.45477712727648    6.15847338748301
C        -2.12954513897067   -4.33742224548718    5.55276628697274
C        -2.24118837233650   -2.97314607274715    5.78823171229397
C        -3.49905201744076   -2.38692246541929    5.85536948260021
C        -4.61105804295667   -3.19243451345864    5.67058772734464
C        -4.45502054814630   -4.55485513439202    5.43389166592470
C        -3.22101481346944   -5.19015652323557    5.38358242568304
C        -3.15606333746240   -6.36242493346516    2.47301196181045
C        -2.70732296012705   -6.20030750102027    1.16908359394245
C        -1.35782427833804   -6.34943274387570    0.88425856240322
C        -0.49420292187679   -6.63968014011446    1.93087000045306
C        -0.98493101180294   -6.79770682344686    3.22532895480081
C        -2.33878618894656   -6.70248175103919    3.54875082307951
H        -8.54228285212718   -9.90514449119609    6.80881765871446
H        -9.62614671825017  -10.19991089990827    8.96406369038076
H        -8.63460394823931  -11.67065608975292   10.68480786018750
H        -6.53475259587872  -12.87077794821928   10.18982713893704
H        -5.41861063562287  -12.58721836109552    8.04737908480629
H        -6.96409253364002   -8.11837057273677    2.48173916786358
H        -7.03134559741513   -6.48655285935787    3.17846515877930
H        -8.51110551471305   -7.42408115092712    2.98669620986112
H        -4.80650950317374   -7.31899749121805    6.16950766361733
H        -5.04911257959077   -7.39938322362855    4.43758058848533
H        -8.79857159776180   -5.80412822915174    4.66995118073500
H        -9.35917392057743   -4.49158977240366    6.64856241990794
H        -8.55147292388364   -5.17596633893103    8.87365130925403
H        -7.16452899698523   -7.20788957847249    9.10921112869435
H        -6.57728293058980   -8.53632783444046    7.11828397487891
H        -4.65089656331746  -14.64142472500869    4.73525683102756
H        -6.19959964477310  -15.46689292286180    4.86039879654567
H        -5.59780956818766  -14.53717743681109    6.22901958194027
H        -4.48690824343367  -13.86740300553621    2.60631071140206
H        -4.77257501129563  -12.37762497817865    1.69243225811335
H        -5.88582988769301  -13.72565542332675    1.55552496336582
H        -8.19878238530786  -10.24612034400147    2.01726651009576
H        -7.61115830530624  -11.62695116442335    1.09585233248034
H        -6.47727137385170  -10.38516800897595    1.61255737148696
H        -9.32641071700239  -10.06603407761126    4.20470394401059
H        -9.90488080256269  -11.35189138049444    5.27324247612867
H       -10.06630523266705  -11.51846675331265    3.52789181203691
H        -7.76321027376836  -13.97681315542565    6.96467204511673
H        -8.98701590230673  -14.35179035744115    5.75221951680598
H        -9.10065953484117  -12.86367176082980    6.69320363220973
H        -4.07932804271122  -10.39837251535289    2.07750482580278
H        -2.81288516898020   -9.27134820562362    2.54960518723145
H        -4.49422548794092   -8.74347722043822    2.56205037496259
H        -2.74499048156996  -12.19106607225239    2.91526289124471
H        -2.89003396732171  -13.31058585125757    4.28828802016764
H        -1.63487911928306  -12.08151584470405    4.26744280314123
H        -3.36944737697390  -13.26944873938671    6.83121810948928
H        -3.20425065823712  -12.02652664058981    8.08823776655908
H        -1.93617557231259  -12.25483173871955    6.88858873771115
H        -4.24954491607921   -8.34028718017401    7.94361130447325
H        -3.14838203578194   -9.62714910898450    8.40937830251282
H        -4.88778937849723   -9.88947661033965    8.51468788061848

