84
CSD_code = RURGES | q = 0 | S = 0 | Stoichiometry = C38H40B3LaN2 | MND = 19
La       18.04179862276665    7.60769761047686    0.12425557126777
N        15.95383178844294    9.02917022121634    0.15163116362414
N        14.59613743967419    7.18717093558985    0.58126362540006
C        16.46804762863520    5.66232709240224    1.69199586746506
H        16.19308131798109    5.89936043138361    2.71673138505084
C        17.45758321716295    4.69373672417944    1.52398069364481
H        17.93138118450167    4.25298108578352    2.39443369833152
C        17.81478441093943    4.21554682711864    0.26560192397070
H        18.55991501593942    3.43664233612504    0.18780377637764
C        17.19888405211496    4.67997092326853   -0.89298868357079
H        17.47420044936954    4.22038442714517   -1.83745545734960
C        16.19461353310456    5.65091869210789   -0.85484562000245
H        15.69361400053697    5.87552717118863   -1.79439749084155
C        18.42217135575651    8.05551679871553    2.91529230942896
H        17.90856834557025    7.38646589843989    3.60373409267069
C        18.05048215662325    9.39653838009137    2.96958924996360
H        17.24255031345391    9.70313883938639    3.62915943969137
C        18.73685896669790   10.38538341555638    2.26998035392183
H        18.43616813130754   11.41913165023327    2.37661472834031
C        19.84121940860302   10.08029354719012    1.47988047273501
H        20.36942138410362   10.90458628333407    1.00923342834427
C        20.32524748316300    8.77952042808356    1.35527561647809
H        21.27010806611865    8.65582930393049    0.82701330936797
C        17.95383295916930    7.51681767904533   -2.94521229908111
H        17.60988642531365    6.54165879069873   -3.28350773582795
C        17.29284390232672    8.61810191942653   -3.46724480224135
H        16.43586971018916    8.47736601543565   -4.11954935136722
C        17.71896004951224    9.91936649046844   -3.22381283489777
H        17.19139910101392   10.74424918873075   -3.68346972579107
C        18.83253115542618   10.18455499640424   -2.43834438666676
H        19.13666973372293   11.22007812960676   -2.32009178216751
C        19.58554472178976    9.16989606306871   -1.85873160759724
H        20.51452967915855    9.47792126730003   -1.38207820980161
C        14.79506795445834    8.47553278655947    0.38172186302839
H        13.89404293609847    9.09438819986972    0.42441104843523
C        15.91745454952086   10.48596162100309   -0.07929457193720
H        16.95734504187206   10.78068184360017   -0.27704301773260
C        15.42525494484873   11.26151607159074    1.14678642630412
H        14.36700292021793   11.08707341574197    1.32789308357298
H        15.57075681639468   12.32684898370964    0.98684282988238
H        15.98190388309775   10.96053960856006    2.02920195315976
C        15.07902896112232   10.84409356666952   -1.31058154535873
H        15.36051305766606   10.20697576638680   -2.14471036560243
H        15.25477676453268   11.88058431635384   -1.58637932655382
H        14.01594008019771   10.71940638728748   -1.11695162839131
C        13.24644134412096    6.69843579257882    0.81974539120310
H        12.56851520580473    7.56314934739314    0.83398331965943
C        12.81686248551804    5.75989050498819   -0.30776273421215
H        12.87871784903211    6.26752028789253   -1.26727439795782
H        11.79202118776860    5.43393918825465   -0.15108978778183
H        13.46620225907741    4.88946012523654   -0.33194449384009
C        13.16114603064775    5.99203788745243    2.17188187324614
H        13.79128633394259    5.10768094751788    2.16936026989676
H        12.13487707019512    5.69391657533095    2.36975821437717
H        13.49055701164289    6.65566252961907    2.96766550511717
C        20.25074587289937    6.23574141635882    2.15601420794636
C        20.82812142375820    5.18109270950543    2.31653520190037
C        21.51839133357558    3.96416829835587    2.52563313519284
C        20.90781709662342    2.73219850211035    2.29205371485229
H        19.88868542476099    2.70202689294515    1.93658667770100
C        21.60295135561074    1.55948810524624    2.51324780693977
H        21.12338086511449    0.60914010675141    2.32630148225144
C        22.90831217307489    1.59611231416947    2.97482782442677
H        23.44759742558487    0.67629183392903    3.14852425311454
C        23.51978182417905    2.81628546909515    3.21517940387259
H        24.53753927072308    2.84739482691886    3.57771537231556
C        22.83486128022077    3.99353306190277    2.99147841329307
H        23.30555371534423    4.94843541567041    3.17597777125081
C        20.02642851902020    6.53001301464316   -1.55685344044284
C        20.73404648028878    5.58614240815715   -1.25975695631630
C        21.57015039203930    4.48935788454905   -0.94892992790461
C        21.15565029774083    3.18486313876472   -1.22673537891629
H        20.18550651889307    3.02186678679651   -1.67388099608487
C        21.98332600202404    2.11825150336058   -0.93897718800000
H        21.65533220414947    1.11076961814160   -1.15189750219673
C        23.23367620659578    2.33491559963755   -0.38233306499228
H        23.87933043117771    1.49827996364177   -0.16054445133413
C        23.65335709466885    3.62684775461175   -0.10949663885098
H        24.62869326699299    3.79542107836658    0.32316917960271
C        22.82961462281226    4.70000746693240   -0.38472901699136
H        23.14745697574484    5.70894036400062   -0.16674223766930
B        15.74443339749097    6.19006842631236    0.48042644065368
B        19.65263988948555    7.64249653264342    2.11417388937180
B        19.20546824179990    7.71730419023533   -2.10772860219708

