71
CSD_code = RURHUH | q = 0 | S = 0 | Stoichiometry = C30H36B2Cl2Zr | MND = 14
Zr        1.25674671395989    9.37659931967664    3.03662974721108
Cl       -0.23064606331063    8.01989952876519    1.79515611940010
Cl        2.54356400946385    9.48510461548937    1.06012433582848
B         1.88715787195454    8.79487753830285    5.40558725103201
B         1.35791924269821   11.77670183322588    3.08074080466987
C         3.15096237319895    9.10443369425277    4.61418747563255
C         3.59033244368590    8.25042728516605    3.59543502134285
C         2.87212068119805    7.10946935814193    3.19129992770075
C         1.63353388884015    6.84567642878188    3.80383252932834
C         1.08680830443111    7.64485980852371    4.81647539393272
C         1.50142470652715    9.50683840469008    6.76226264325052
C         2.38915807068483   10.36682939090633    7.41855669421689
C         2.06221130720317   10.98839962185863    8.60929203363382
C         0.82694112145259   10.76597888119379    9.19404898410915
C        -0.06572159105471    9.90319738897391    8.58148776688772
C         0.27206391910363    9.28471767184213    7.39181668700672
C         3.41349237628809    6.11729066200854    2.16187616759267
C         3.66353285418154    4.77231378258846    2.86287564583367
C         2.39043530399373    5.93494996712728    1.03066902409806
C         4.72814059697112    6.58697541300950    1.53137059418663
C         0.73752804387238   11.39436708657062    4.41089828874284
C        -0.54237750129585   10.83354958936761    4.48200960418538
C        -1.34048391949028   10.59188475566525    3.35354562518530
C        -0.84470599647105   10.96317698974042    2.09061649050403
C         0.43086962962153   11.49866006249305    1.90463168182347
C         2.85324404462009   12.26706929635367    2.94626484937962
C         3.65905406747982   12.47624457953994    4.07312490035941
C         4.98722295798414   12.84590428410044    3.96520256810088
C         5.55943223775342   13.02533929178082    2.71721926512626
C         4.78229915215346   12.85092102805001    1.58463948872335
C         3.45408723410846   12.48449794069712    1.70043302685645
C        -2.73125964225007    9.99287674628576    3.55448127337210
C        -3.43101747225915    9.67571978504826    2.23000820745709
C        -2.59528924210805    8.67825655191584    4.34052249464776
C        -3.59966817560571   10.98615340142051    4.34138165044773
H         3.85804585096542    9.88817683518203    4.88487211423878
H         4.55929872593963    8.44153440973075    3.14474564227507
H         1.10576394315469    5.93840296418893    3.51895191212538
H         0.16810238795322    7.25608878376945    5.25732205119014
H         3.36364156671392   10.54962123227361    6.98833017977219
H         2.77239571614645   11.64965196450947    9.08522826660333
H         0.56577463806576   11.25365647029416   10.12162893564986
H        -1.02809018728729    9.71134431686474    9.03520252180681
H        -0.43844242053434    8.60387880863770    6.94293402739816
H         2.74314421034225    4.35732638361280    3.26451167727428
H         4.36684618023394    4.89963842579601    3.68314859350166
H         4.08002614988361    4.05701361694374    2.15763057367850
H         1.44732062845458    5.53426618932600    1.39359006841486
H         2.78288308882411    5.24720228900054    0.28477849792830
H         2.19375831890570    6.89156757780122    0.54752379551658
H         4.59562968540884    7.54774464323735    1.03919727400743
H         5.04398203194550    5.86511596111380    0.78153326339792
H         5.51985286644817    6.66162746053431    2.27374334187172
H         1.18176725044139   11.64046063464741    5.37252240450820
H        -0.97142243356322   10.65888712714896    5.46479568289115
H        -1.49425166887293   10.85968385115985    1.22802191239114
H         0.66496674414437   11.78287131692820    0.87797865474111
H         3.23180197268948   12.36688100479834    5.06111077936821
H         5.57967580577712   12.99668694117342    4.85713833264309
H         6.59838724292757   13.30776595509723    2.62912438352354
H         5.21486394655942   13.00172124601209    0.60614815342506
H         2.87098219205576   12.36390183331284    0.79888091666697
H        -3.62653193035790   10.58090334552229    1.66001635029180
H        -4.38783099323407    9.19898333882211    2.43160226716305
H        -2.83021759306238    8.99238239917994    1.63468240463732
H        -3.56665316774276    8.19589025089007    4.42637933750843
H        -2.22038488154310    8.85141771382353    5.34652459182914
H        -1.91943791345632    8.00277658117816    3.81328242247600
H        -3.68400546343977   11.92393787272155    3.79695885039406
H        -3.17459211221393   11.19876145681436    5.31882979042861
H        -4.59786392821660   10.57846681439001    4.48412576667646

