81
CSD_code = RURMUO | q = 0 | S = 0 | Stoichiometry = C32H45IrOP2 | MND = 6
Ir       10.86898556875911   12.60467500311698   10.82990525238438
P        11.67586864540599   10.58627693365707   11.55070538340508
H        10.39462428339997   12.84068940786486   12.25564259138073
P        10.68883964640381   14.91171283077266   10.64258664521872
H         9.38613345185859   12.18527302551986   10.49208898276218
C        11.02092399106543   11.70679242915761    7.56964893124097
H        10.62439999055551   12.52788679564352    6.96377694736898
H        10.18904356832111   11.12371331376591    7.96034794185990
H        11.65035596257503   11.06661311646191    6.94071580920837
O        11.73310003955546   12.18497638631564    8.68534875955662
C        12.93866310819053   13.20848667553281   10.98474943282946
C        13.92648901415467   12.09883339098291   11.28451512156749
C        13.47590752581576   10.81431194199081   11.58281824806625
C        14.36869008724167    9.79500500994016   11.90023013334283
H        13.99755043173304    8.81280185414982   12.15977644015553
C        15.72772003201482   10.03503284311632   11.88416056835991
H        16.42391046502564    9.24555254275641   12.12870488269562
C        16.19281336033255   11.29501765542886   11.53865666957075
H        17.25629333156160   11.48569344264335   11.50446153872190
C        15.30460597099044   12.31067671656910   11.24261329967949
H        15.69086107985410   13.28274348787339   10.97283194363263
C        12.16635669014052   16.57847736353787   12.43394530464611
H        11.45797890759244   17.37743070118850   12.26653074427894
C        12.08547835331782   15.40109563759028   11.71002642153774
C        13.02286060749275   14.36785051435954   11.91671234720604
C        13.13320858765533   16.72875372629099   13.41664592624311
H        13.18964405532630   17.64650743375690   13.98377922593524
C        13.98738502284510   15.67745086460372   13.69892929300421
H        14.70800353695950   15.76908647945185   14.49957079894089
C        13.93974048493444   14.51251141504617   12.95308795682885
H        14.62485587457823   13.70931517120456   13.18446123636807
C        13.30891587274282   13.68620318294908    9.59639676962245
C        13.18539243135647   13.43033612424420    7.18619349780992
H        12.77561235953093   12.95479797860136    6.30877119491575
C        12.75465763833495   13.08338479971704    8.45648353724154
C        14.14758932318949   14.41544017203242    7.02461878331311
H        14.47313379193308   14.68094344744175    6.02985182549041
C        14.66334578718607   15.06264015952063    8.12958194878712
H        15.39127953327901   15.85145962270806    8.00952069962224
C        14.25233542343305   14.69018058018903    9.39809260950545
H        14.65613854892098   15.20868378727416   10.25636993670436
C        11.47707578340898    8.93481857659979   10.67376327732536
H        11.72351418462252    8.13829231882586   11.38729530985618
C        11.40352936357893   10.09107780321368   13.33491796465685
H        11.95476358288676    9.15517501882677   13.49753087058754
C        12.40628199410757    8.83812198688311    9.46683407101601
H        12.17047704616718    7.94916930916859    8.88209590178616
H        13.45079004903443    8.78309742531882    9.76561539547897
H        12.28453704226143    9.70809068214864    8.82810801011426
C        10.02545939332891    8.77598912426667   10.23166203694444
H         9.75897693693613    9.56849604499837    9.53659897381693
H         9.34530255090586    8.84470864706802   11.07542614603992
H         9.87852010694662    7.81448219121221    9.74048230102901
C        11.98263062664073   11.16407791831958   14.25165328908152
H        13.04825149151018   11.29674160856494   14.07683520535881
H        11.83821656101500   10.88421682435463   15.29404795787534
H        11.48570965614333   12.11592232545672   14.07508112218450
C         9.92386184796879    9.87767984356158   13.63358479131427
H         9.34849076739255   10.71199235032556   13.23483514022078
H         9.76279503214103    9.82253392409699   14.70902477041815
H         9.55887717241623    8.95343141925291   13.19314413991057
C        10.93650024818047   15.88178097079905    9.04669038862906
H        11.96075369222019   15.62045418630888    8.75727583012175
C         9.24167563959110   15.77568426562748   11.45424506729149
H         9.42784397127838   16.85476045636841   11.41578500796343
C        10.88621574501545   17.39812857246575    9.19132049121543
H        11.18846750665536   17.85807416904242    8.25050493708231
H        11.57216959392383   17.73534736084937    9.96526155118645
H         9.88282973379402   17.74652204823922    9.42639535149523
C         9.99076923888281   15.38633561367586    7.95040884248332
H        10.47037965641492   15.44973749611697    6.97378634992728
H         9.08382149896042   15.98535223818847    7.91322166245374
H         9.69981133364730   14.35266151102258    8.13520196547345
C         7.95430805672479   15.44319879872374   10.70724611131559
H         7.92649136740465   15.90346023921985    9.72392392497037
H         7.09230988542166   15.79673649948183   11.27095510349269
H         7.87534944572566   14.36306064138717   10.59380212197714
C         9.10672090507724   15.35042477614694   12.91227035292066
H         8.32895182391361   15.93750538599586   13.39883637056566
H        10.03798761197332   15.49102843429720   13.45626430027260
H         8.83338947019472   14.29901702855839   12.96241201310449

