83
CSD_code = RURNEZ | q = 0 | S = 0 | Stoichiometry = C33H45IrO2P2 | MND = 6
Ir        5.95693208664471    2.83172254371907   13.26791491570778
H         4.57736198922745    3.11749479983059   13.86963485372427
C         5.71995638795230    4.67456785175678   12.03592701344631
P         4.72368910017649    1.92626236973698   11.45572430078650
P         8.12205821217575    2.80640819146155   12.38931357966037
H         6.46612810222600    3.70195161752657   14.43277110506035
C         3.89006193585102    3.40685739744085   10.81715075895198
C         6.17527866900979    1.31604337723734   14.35833316183775
O         6.36306070484657    0.44773880641811   15.09496389881856
C         2.48855817257795    5.43069814607477   14.56927077189040
H         1.93070933845714    6.36495887752496   14.43608691849172
H         2.84439029597986    5.36231811519478   15.60226239735652
H         1.82745568893400    4.58963961478845   14.36261614495655
O         3.54171776894116    5.31777268320927   13.64988857605551
C         4.42681281989707    4.62752007507625   11.23630155165966
C         3.76023814378530    5.79172536569594   10.85355866683086
H         4.12201336779903    6.75140542210429   11.19618941814310
C         2.62448489974186    5.74593724311901   10.06874839188621
H         2.12585488564784    6.66432104247738    9.79231767121817
C         2.12029322175577    4.52976014872664    9.63757083371823
H         1.23144561104167    4.49177710737235    9.02420076658293
C         2.75013696371964    3.36244930103325   10.02082384055712
H         2.33302860448364    2.41338351813171    9.71587353851267
C         8.04948673971981    4.09627118151379   11.11406831231090
C         6.85170564303242    4.81886948190274   11.01868320923689
C         6.74467805320167    5.73283153930266    9.96952217298550
H         5.83725439296377    6.30346056706485    9.85152704421457
C         8.96827256224944    5.24713782974106    9.20804872690695
H         9.78474706794632    5.42000045173622    8.52227454039416
C         7.77550832829569    5.93885769731710    9.07363526897750
H         7.65329839902675    6.65405219991132    8.27305833291851
C         9.09834114639846    4.32766489926045   10.22843990354234
H        10.02448908015585    3.78399943871227   10.33905202320435
C         5.71075339814841    5.90611791616015   12.91698201645744
C         4.59912644548353    6.17739141900481   13.74640992780004
C         4.61020003201907    7.27251371031637   14.59611509130764
H         3.76494807638770    7.47576460839752   15.23501196439054
C         5.69963061510952    8.12852319028565   14.63767055333796
H         5.68763909707105    8.97705704904929   15.30581651156570
C         6.78331854666372    7.89017162468845   13.82002279478126
H         7.63677331555555    8.55225432314175   13.83301644214765
C         6.77662062075973    6.79511549705285   12.97165634983817
H         7.63429646775062    6.63702467637115   12.33631346453776
C         3.29269988243252    0.81220003645070   11.90770805178483
H         2.73399132244327    0.60905258190781   10.98800569218468
C         5.36753724055980    1.09326893323057    9.88175864070173
H         6.15612859525381    0.41117310297274   10.22340521991106
C         2.34877099512425    1.48488185249785   12.89690641899775
H         2.03946039956921    2.46314237630169   12.53315551044746
H         2.83410075736599    1.61671192621120   13.86129238572227
H         1.46178364936367    0.86832900674262   13.03883306305797
C         3.82312428047966   -0.49931556846812   12.47976532288532
H         3.00184862706567   -1.18896710024646   12.67045436713690
H         4.33409367211823   -0.31471671560672   13.42275757602889
H         4.52413392099062   -0.98212536791426   11.79983667628112
C         4.37611655519383    0.27684851740495    9.05557190051698
H         3.55516234057459    0.89406444578909    8.69950426230974
H         3.97604226590692   -0.57215269563561    9.60329501546415
H         4.89589074283496   -0.11261895219739    8.17978776011916
C         5.99987635945635    2.15814540648020    8.98877022908250
H         6.54185016985261    1.69208143504158    8.16593529811143
H         6.69509747507155    2.78264406844000    9.54487294262040
H         5.23308180830741    2.80728172897327    8.56826254577023
C         8.77488377958288    1.29021598968549   11.47157372949558
H         8.35604894267594    1.39272373616880   10.46127450375913
C         9.57532490022546    3.32949302702189   13.43799915363806
H        10.48597473443272    3.20591029034980   12.84085624977757
C         8.19543238456315    0.02788333268171   12.11044801525369
H         7.11497310775168    0.10278188878788   12.22535810674847
H         8.62327269169317   -0.13923920984037   13.09713053170793
H         8.41621451705735   -0.84423733831308   11.49511355292846
C        10.28788238908310    1.12478469424835   11.34563341160797
H        10.49259203221390    0.24860046269627   10.73008657358925
H        10.75081879916090    0.96220006888328   12.31611620806538
H        10.76549914835023    1.97594642456836   10.86825974969192
C         9.64688508429185    2.44378554483891   14.67803733974936
H         9.73821782599585    1.39133256272058   14.41576939283259
H         8.74471259977053    2.56961407474892   15.27488361336032
H        10.50559804149458    2.71764201913270   15.28954673617228
C         9.44813606657437    4.79562837215373   13.83317466098751
H         9.55118721712701    5.44179555401198   12.96397731307694
H        10.22802869844953    5.05697344423850   14.54683813569713
H         8.48107098058539    4.98954312596631   14.29427641599480

