82
CSD_code = RURTAA | q = 0 | S = 0 | Stoichiometry = C33H43Cl2N3Ni | MND = 5
Ni        2.51796006819776    3.52217730188360    4.97778043142315
Cl        1.04400627902993    4.85105003065096    3.75974841338109
Cl        1.37059937338505    1.84418197647742    5.30561233972833
N         2.22873231851100    4.40610710174439    6.77964597899972
N         3.60092377081267    4.91183693604723    4.75979051322842
N         3.58376893673981    2.82065205958843    3.40183323657015
C         2.67786797727460    5.61903966223503    6.76861361058119
C         4.24695769800032    3.77865024475082    2.84000801363613
C         3.41773298566115    1.56065402815731    2.80605853115861
C         4.31732673819941    5.00039164998621    3.62679921922488
C         1.96365183810126    2.93997156951686    8.65323343721203
C         3.52044746036829    5.93576822189019    5.62565423341063
C         1.40610831411734    3.90915592027806    7.80269633301378
C         4.08614762116571    0.48079305759307    3.40719437342263
C         4.17530970360459    7.13344617391031    5.35912983205217
H         4.09893484815091    7.96218321034426    6.04417202926960
C         2.39550263446749    6.64354047534984    7.81844536436537
H         1.88833321634657    6.18831210189072    8.66602565442192
H         1.75942607984872    7.42722470687563    7.40811644423146
H         3.32447718141026    7.10111564807701    8.15596453630169
C         2.58075335016281    1.37204764484586    1.69706960525641
C         0.07052918053341    4.31431836719910    7.93882291155120
C         4.99080331410344    6.17576614389750    3.31214653073442
H         5.55239233599582    6.25517888440273    2.39550467651999
C         4.91645975077863    7.24574545641082    4.19193015452344
H         5.42844068935607    8.16803481184897    3.96435510940519
C         3.18988926252324   -0.96273984317190    1.70398282975557
H         3.11137220971505   -1.94566793266349    1.26333335965715
C        -0.66856533090074    3.77944261437384    8.98474611506230
H        -1.69997981636163    4.07153802726932    9.10550820185836
C         3.38912282585274    2.49304587055484    8.43086450984879
H         3.59027148977336    2.56924395857222    7.35020607166730
C         2.48423335786703    0.09403184548197    1.16436099548919
H         1.84166622504177   -0.07662593773474    0.31482799388002
C         4.92538339858676    0.72617235734951    4.63878787427814
H         4.44206974916980    1.53993725869894    5.20331502189093
C         1.19295481122391    2.45164166450938    9.69448839870699
H         1.60637751767002    1.72536333137552   10.37522003547402
C         3.97482328881628   -0.77106520183388    2.82665134322684
H         4.49675409984067   -1.61129206356326    3.25473674861014
C        -0.59888928169491    5.20508163120169    6.92135074905368
H         0.14986540574138    5.61742182495849    6.24059420448339
C        -0.11132310690564    2.87740488713768    9.86899322039443
H        -0.70105443950101    2.48610576146880   10.68482267584468
C         1.70961397648903    2.48079669214597    1.15990301518337
H         1.99478608300986    3.43068257333516    1.61864133175257
C         4.91227470666916    3.68824477140302    1.50555580352758
H         4.89339472849409    2.66377216003966    1.14094006420793
H         5.94472009891577    4.02784377487801    1.57617553991900
H         4.39244305765052    4.32519179321505    0.79053972939863
C        -1.54297241882170    4.34637534848528    6.07475547417796
H        -0.98653712836201    3.53243363858591    5.61645177707813
H        -1.97979763386888    4.94848907001233    5.28217644312355
H        -2.33922442500011    3.92321671793689    6.68307086037847
C         4.35565288215598    3.42276197406629    9.17158963449376
H         4.24654426427563    4.45196333385256    8.83512931228183
H         5.38465720393079    3.11293681972940    8.99978865051473
H         4.15990605572306    3.38964809242021   10.24189151084002
C        -1.35053465840911    6.36934153692688    7.56860726980021
H        -0.70817449167573    6.92055783319399    8.25370561372442
H        -2.21725141905519    6.01779687090664    8.12269811135468
H        -1.69981429633295    7.05158310182712    6.79700128532399
C         3.62629759455758    1.04195745843287    8.83949880076092
H         2.89009852848504    0.39716884306787    8.36720095627930
H         3.57216339871963    0.91693493125503    9.91831540997232
H         4.61763937565315    0.72909902699177    8.51921142966136
C         5.00214814124220   -0.48895637445949    5.55859987861467
H         4.00319692620594   -0.85642134303292    5.77695791591768
H         5.48071099050272   -0.20963278290088    6.49461704379995
H         5.58877508667507   -1.28899539227665    5.11315739837624
C         1.82271763981991    2.62877659446589   -0.35825828011007
H         2.86266113583748    2.71690919329495   -0.66899650699943
H         1.28913794709875    3.52081495099217   -0.67822578661794
H         1.38556079838260    1.77490364843430   -0.86973364858981
C         0.26233022934419    2.20387947992735    1.57705849446995
H         0.20296151377990    2.11616538055999    2.65915625574762
H        -0.10364346688660    1.28066296059550    1.13332700610010
H        -0.37581797669586    3.02732030389780    1.26679542190710
C         6.33345973172074    1.18079184582605    4.24100556561945
H         6.30085692859752    2.09346631767245    3.64954233080543
H         6.82344817583919    0.40780222169427    3.65168861316931
H         6.93374538457037    1.36943319276460    5.12891841125151

