50
CSD_code = RURWAD | q = 1 | S = 0 | Stoichiometry = C15H29IrN3P2(1+) | MND = 8
Ir        1.94525748268688    1.04385645361073    3.24787519110769
P         1.02372801185833    1.22996191541186    5.42413338834204
P         1.35552024408877    3.32014532680003    3.56951669870488
N        -0.11674016993463    1.06904241309425    2.90220890034385
N        -0.47318478567805    0.41142198642764    1.99522176282178
N        -0.87552464236109   -0.20515619939604    1.13287317149234
C         2.07394361288522    1.40309612247330    6.91064829521136
H         1.48729438874357    1.81761367632003    7.72938294984833
H         2.91609303245330    2.05740868564173    6.69786853559658
H         2.45259086298239    0.42639231573519    7.20400931655479
C        -0.41900359793233    0.31007730121121    6.04865655174942
H        -0.11441025122420   -0.69231554035699    6.34386639986816
H        -1.16042359248609    0.23697645066220    5.25644186263395
H        -0.84136945786115    0.82955205198844    6.90841403705354
C         0.41088749349906    2.96204049550034    5.13231783080873
H        -0.65857387515214    2.94234579894387    4.91855031168067
H         0.61818381175793    3.65332098650133    5.94951346604208
C         2.56575593509542    4.58961977852476    4.08666663562915
H         2.04443122662361    5.44077317068444    4.52262832708707
H         3.12821182838471    4.92633103518186    3.21826043992345
H         3.25866546767220    4.17337346645059    4.81394914853581
C         0.20417874236655    4.26851797968465    2.52317715003201
H        -0.63117867042441    3.63012630791018    2.24519150620384
H         0.71624677684578    4.59611302000476    1.62015986107801
H        -0.15789631246263    5.13804796942931    3.07114427648824
C         3.40048483815158    1.73328072620386    0.27508585841290
H         4.20314398739244    1.36507825323646   -0.36596684310565
H         3.63236585014914    2.76042477188075    0.54690526176945
H         2.47667394242723    1.72654426819336   -0.29874547475863
C         5.14792839663229    2.01262543293744    2.91101932594660
H         5.32157377541319    2.18814450398820    3.97007987731799
H         4.90984549251537    2.95959242633841    2.43284965006756
H         6.07781784317754    1.64297233843026    2.47638399195136
C         4.51940928323816   -0.49731780532367    4.76580261449131
H         5.39638146916272   -1.09030428181048    4.50191198859013
H         3.89446068040124   -1.10026262420789    5.42026763910130
H         4.86068542639878    0.37855969912918    5.31223544155523
C         2.38639314229017   -2.30821478511378    3.25795071672012
H         3.09321107885496   -3.05603264731260    2.89448362807255
H         1.40587646587252   -2.54151417157573    2.84916833585769
H         2.33946696340899   -2.38859045823770    4.34132330893256
C         1.91544037336106   -1.06342597758817    0.40674850708763
H         2.25509058244942   -0.67008816536673   -0.54790038371244
H         0.82200849132343   -0.92537413653846    0.44659838334014
H         2.09561303761396   -2.13589458549702    0.43947774252172
C         3.28823970180237    0.86357894443484    1.48355167573423
C         4.06974976760386    1.00366731704624    2.69221468585606
C         3.79510760264553   -0.12060688600187    3.51710723966545
C         2.83254402999681   -0.94911836060703    2.83046169197522
C         2.61860421531638   -0.39660676517351    1.52710912179432

