52
CSD_code = RURWIL | q = 0 | S = 0 | Stoichiometry = C22H23IrN6 | MND = 8
Ir        2.24945820176762    4.36753690644077   13.49574864874808
N         2.28523060718902    5.58424069393838   15.12343509597595
N         3.54305199406157    5.89735347678862   12.87982918244816
N         2.77925071639172    7.63715520718315   15.95136159678020
N         3.86627574210019    3.47930691000862   14.33134741369003
N         3.77420935453179    2.46243488341881   14.91039357625361
N         3.81662036353958    1.47339253248881   15.46559540977314
C         5.00634526319171    7.01060456043319   11.36839915613644
H         5.55085048041795    6.98623838327124   10.43822632441849
C         2.89562097752402    6.79507577521277   14.93752372160259
C         4.36896986970621    8.09364885985080   13.39392997154460
H         4.38166824692902    8.90702792418248   14.10023643513480
C         0.94524115859848    6.40036144885495   18.89670779792809
H         0.60471129652834    6.65953617122488   19.88870534567880
C         0.67458070185006    5.11338778698734   18.40788036752507
H         0.14376326835701    4.41721680543556   19.04128040143503
C         1.07616477989298    4.71673779836044   17.15444842304154
H         0.89872727904454    3.71569793091208   16.79378441744243
C         1.76209073409353    5.64393993913125   16.37293811855275
C         2.06671822056075    6.94726784905410   16.87879753607389
C         1.64259885720851    7.32207056914591   18.15448919236902
H         1.87162046858330    8.30533350242059   18.53389467566901
C         0.00760441403628    4.15005215084780   13.31573611404440
C         0.51873327890506    4.62521018625870   12.08502470111756
C         1.40038611801570    3.61400819014716   11.54428914158469
C         1.43457456140347    2.53055408439093   12.45257669732347
C         0.62756415346281    2.88139682649254   13.59560130537493
C        -1.05670102651634    4.79626976273442   14.14055555720990
H        -0.87156600424510    4.66003017915042   15.20381964693182
H        -2.02467885614200    4.35186671929421   13.90111559318429
H        -1.11422262112708    5.86401607351241   13.94258407085283
C         0.06618855804125    5.84773176008118   11.35245958366830
H         0.86236430386526    6.25291555863530   10.72988552961890
H        -0.25165700531961    6.62478041797973   12.04460314953002
H        -0.77826395154366    5.60416090934979   10.70448293711034
C         1.95051096028895    3.60375495178713   10.15307058033238
H         2.12286173298281    4.61319599200156    9.78476851296399
H         1.23698959710178    3.12034354434407    9.48265844518984
H         2.88462696749907    3.04702711021391   10.10198352273617
C         2.05853757671828    1.19085599364933   12.23158948614488
H         2.41208414450835    0.76351167122622   13.16773643299667
H         2.89646468941770    1.25112260992409   11.54100935345171
H         1.31605509675515    0.51055755955332   11.80980406165749
C         0.21309211351915    1.90075852546782   14.64933048583201
H         1.07910877821735    1.45664294991394   15.14092303466501
H        -0.35890614792442    1.09204014832495   14.19078618415367
H        -0.41138909278138    2.37474220857177   15.40184162208874
C         3.61635957331286    6.96104369909859   13.71126654373317
C         4.24032400519985    5.92626679665031   11.74706522430600
H         4.18948863563632    5.04515099133081   11.12410891370068
C         5.06512560945539    8.12204432782411   12.20622304271918
H         5.65427125518990    8.98338218650297   11.93084771755157

