103
CSD_code = RURWIK | q = 0 | S = 0 | Stoichiometry = C43H54N4OTi | MND = 9
Ti        1.39287457330831    3.40552653163870    2.31581190696273
O         0.46981819690556    2.20705542309074    1.41986146977147
N         0.55494982019349    3.77773730358940    4.05682685526134
N         2.06091996033334    1.81854144068369    3.38515407460347
N         3.11718021383862    3.15162928348533    1.40608461368427
N         1.17664371316455    5.28009978919251    1.93668127474666
C        -0.44457935687184    4.71878967553240    4.08608265784335
C        -0.69514587836376    5.08025996817323    5.39102390183387
C         0.16982320036583    4.32109971220285    6.20213798414874
C         0.90770584281680    3.52267066347913    5.35650565824412
C         1.90042136635273    2.44358555436198    5.74089117063746
C         1.97485907482807    1.44749715456613    4.62217882031138
C         1.91589046635451   -0.00018287553825    4.71572343367746
C         1.91360852058391   -0.47941761814628    3.46150204111954
C         2.02116304717279    0.66715955417181    2.51168661152585
C         3.31792609864500    0.59777187482658    1.62927411408452
C         3.79500416568484    1.97668815053457    1.22315830905673
C         4.95939414491321    2.21838243304908    0.52267121220466
C         4.99645383061478    3.59565832774952    0.24965455773576
C         3.85309814505198    4.13485297270768    0.79135298769123
C         3.30589951991530    5.53785858324941    0.69050740832438
C         1.80469040492570    5.37003672637509    0.72392560334529
C         0.88800878663732    5.21301163765527   -0.30073178876196
C        -0.36604614405941    5.01604512525182    0.30622313773154
C        -0.15653334644476    5.05204599947302    1.67912575783659
C        -1.14874476042808    5.13621309731639    2.81576414508702
C         1.46589137058615    1.75737670894439    7.05499806811503
C         0.04800090616944    1.19581173596276    7.02963888242922
C         3.30164810761494    3.07796731520735    5.97577286249110
C         3.72959338627748    4.04160322222164    4.87748484527499
C         3.11213974642515   -0.17965269178360    0.30292009198311
C         2.67615660076734   -1.63770029210961    0.41149951239432
C         4.47072087760622   -0.10163998861154    2.40427156375333
C         5.08017082463173    0.70353524425917    3.54530678536405
C         3.75796863034478    6.17421861102444   -0.63758680340689
C         3.20309091972662    7.57518128785452   -0.87344249365969
C         3.73851395387095    6.38080940384612    1.91401961657468
C         5.24792251532216    6.50976798778567    2.07616213593776
C        -2.32591740480161    4.17679256265915    2.51389099831745
C        -3.32740352092025    4.02213236269264    3.65192577022144
C        -1.61043959761307    6.60603469474703    2.97800891307248
C        -2.26806383583520    7.22288531824452    1.75027773818995
C         0.66400878506055    0.87889439897676    1.68466834669666
C        -0.49367570002453    0.26975748137046    2.46146662175439
C        -1.07203389532507    0.94017629737286    3.53261452602750
C        -2.13802560912273    0.37901505746522    4.21501007894304
C        -2.63564176534775   -0.85737228378332    3.84146330553768
C        -2.06818270648022   -1.52833191207018    2.77175494801986
C        -1.00900152311971   -0.96500514216861    2.08280104522209
H        -1.41253904831480    5.79560242562053    5.74446717026569
H         0.22985904777042    4.36677352767573    7.27303852023755
H         1.87590783105088   -0.57236511025693    5.62214582641798
H         1.83832682571220   -1.50767304199991    3.16431298803282
H         5.70260131582920    1.50136668350799    0.22787331853094
H         5.76660560809435    4.10916255143874   -0.29250564176464
H         1.07771826282273    5.24746445062619   -1.35897455535049
H        -1.30236188235136    4.88628609801473   -0.20904392760588
H         2.17981711272503    0.96466879358065    7.29094222357129
H         1.52914750539725    2.49311217425935    7.85778025819052
H        -0.66688359645804    1.99909841697867    6.87490595854092
H        -0.08503715613352    0.46862402213644    6.23273922817438
H        -0.17436505047938    0.71364859845891    7.97924886650976
H         4.04264779064698    2.28247382229792    6.09071793728642
H         3.25313052052553    3.62618369749983    6.91927019037571
H         4.71191913543485    4.45012050295240    5.10788044601798
H         3.78175278094042    3.54124340948870    3.90576428579010
H         3.01689406679291    4.86746788328139    4.81746638015034
H         2.41250580687485    0.37398922161065   -0.32786535235475
H         4.06982736972576   -0.15362354339145   -0.21964266349962
H         1.70570742372422   -1.73864305579273    0.88917003144545
H         3.40127909673700   -2.22289497435574    0.97061838405223
H         2.60411478734474   -2.06359689043314   -0.58751348214594
H         4.13216059999433   -1.06339278634462    2.79165800679431
H         5.26200571054794   -0.30070995334502    1.67955039024532
H         5.99754567665235    0.22190557418208    3.87853369339143
H         5.32285069734243    1.70951191230466    3.21151701293789
H         4.40491901368328    0.76583879916326    4.39338553521350
H         4.84697888435714    6.21229022056028   -0.66170523940413
H         3.44007174219901    5.51689027668980   -1.44928691224000
H         3.65400204124793    8.29610718819211   -0.19622132418545
H         3.41819767048555    7.89212132014863   -1.89211682215214
H         2.12582231489783    7.58997349490950   -0.72711285303131
H         3.32087266475933    5.90038441834671    2.80589729800145
H         3.28738704555521    7.37145184448866    1.83520284542043
H         5.48001218341045    7.00587063111426    3.01658587446124
H         5.71319908128083    5.52649179912701    2.07921640806260
H         5.68356332471401    7.09596249556985    1.27084875190974
H        -1.90052265420565    3.19675367139716    2.26770695288881
H        -2.84877202294280    4.53424506885264    1.62582141843702
H        -4.06015932742645    3.25811405103309    3.39914603588276
H        -3.85775020523550    4.95350184244211    3.83502690915866
H        -2.82305163932230    3.72806666545407    4.56927135068686
H        -0.72441691355506    7.19186039505819    3.23553193087763
H        -2.30357093129071    6.66388592302161    3.81755480312118
H        -2.48514244242520    8.27195327834009    1.94145701251553
H        -1.60684482659136    7.16143532857519    0.88954834585996
H        -3.20417803655877    6.72557482196469    1.50853723447526
H         0.74096929196639    0.32884698037879    0.73429601983886
H        -0.69092461504377    1.90953372723460    3.82500812546124
H        -2.58233543192224    0.91411314907571    5.04073031735514
H        -3.46734409884301   -1.29289318600522    4.37481084361017
H        -2.45688858178231   -2.48820539174942    2.46499195512133
H        -0.58745644262282   -1.48854709216202    1.23550641043298

