68
CSD_code = RURWEH | q = 1 | S = 0 | Stoichiometry = C31H31IrN4P(1+) | MND = 8
Ir        6.89085664387999    3.12024001602183   16.24364104560790
P         7.33123242499692    1.16603469238106   17.38286259627887
N         8.41801239443252    2.34162226918744   14.94862569577342
N         5.78480296004050    1.74218377856688   15.19989116422052
N         4.62093383806794    1.67416219928703   15.35212519553123
N         3.50061946958033    1.52620609584519   15.42114862226065
C         8.86579758588798    3.03507525583432   13.92214811442037
H         8.54497593606551    4.06275598712284   13.84280140225488
C         9.71500503945934    2.50944821978729   12.94167396077607
H        10.03665314413734    3.14115608368992   12.12972240533706
C        10.10848625319679    1.20100641491015   13.02825813559965
H        10.75219978122806    0.75574325593223   12.28527144392749
C        10.02279391770074   -0.92747104284848   14.29041334156925
H        10.66664254481162   -1.38557775598374   13.55531601717317
C         9.57685121068464   -1.64008522937826   15.37045050447961
H         9.86423858703278   -2.67196582132170   15.49866197406712
C         8.74824715065275   -1.03329380027931   16.32369739954611
H         8.41182176518767   -1.59693509338192   17.18232926127045
C         8.35683240509401    0.27597339435120   16.17253675682236
C         8.80413747880789    1.03873562610253   15.06942451183433
C         9.65787728381670    0.42432649166569   14.11502958923163
C         7.56104824402252    5.15944302888816   16.89714438938600
C         6.76323687028974    4.58171389782533   17.91704124939150
C         5.45674555523668    4.31604749736897   17.35647471127981
C         5.43006050174532    4.87101325374324   16.02777644713515
C         6.72841955548042    5.34208579140981   15.72657386705985
C         8.93221550556381    5.72984892420375   17.06182720925043
H         9.43209115788573    5.30896350095193   17.93053107225443
H         8.86280673696501    6.80949475815162   17.20332740072289
H         9.55186730175249    5.54803376251213   16.18466732457232
C         7.13270134966967    4.43420803130427   19.35516797932415
H         6.85345888304222    5.34425627845862   19.88840343518723
H         8.20110478750276    4.27969496847771   19.48498085540260
H         6.61036737808950    3.59979682587769   19.81775481025108
C         4.23402706924985    3.90282416243933   18.10918652686225
H         4.48768046842160    3.44022532231060   19.05862519016527
H         3.63146169365471    3.20075894628089   17.53287725528405
H         3.61794091335420    4.78036072889657   18.30923348029689
C         4.21126849961811    5.02096816560632   15.18545667267565
H         3.68661934939378    5.93221443447361   15.47762504473642
H         3.52554073412799    4.18693607632235   15.32259915627694
H         4.46207369407155    5.09829176050515   14.13037664204042
C         7.09212483509078    6.14672584629664   14.52173896405428
H         6.69428089000972    5.70555144641578   13.60864094273253
H         8.16922624528533    6.26408468091037   14.42524939410631
H         6.65883360369386    7.14385947157656   14.61755224490171
C         5.94024405537592    0.09598815961223   17.80863661909962
C         5.49872985178921   -0.91104811773126   16.95533891745419
H         6.04084578158958   -1.12234357924013   16.04525157776259
C         4.35537888441978   -1.62304142457048   17.26995296315013
H         4.01325716043922   -2.40335819424999   16.60803327035694
C         3.64180370310510   -1.32719737190810   18.42023686952125
H         2.74584541658719   -1.88006196466015   18.65538161826237
C         4.06892320367689   -0.31309348583068   19.26341350427765
H         3.50668394332730   -0.07572757560959   20.15365295572367
C         5.21023876812990    0.40265688441976   18.95655824660968
H         5.54632816544942    1.20185753065478   19.60380825197484
C         8.45883804799910    1.16919934636693   18.80906373991601
C         8.31790641661050    0.33789839994681   19.91315991917044
H         7.48320167224707   -0.34421772172160   19.98016141724290
C         9.25837495719909    0.38514279325881   20.92873015479820
H         9.14772250153090   -0.25829951621777   21.78807466436308
C        10.33764829738737    1.24903999614775   20.84498670442122
H        11.06470506670341    1.28203079202693   21.64138905529872
C        10.48840371796892    2.06871121361879   19.73620456067924
H        11.33545922449843    2.73466701819903   19.66730429163515
C         9.55115273222186    2.02970204175934   18.72235114629218
H         9.65378879371077    2.65895217696106   17.84644814871953

