101
CSD_code = RURXOS | q = 0 | S = 0 | Stoichiometry = C42H46Cl3N3O3PReS2 | MND = 6
Re        0.15249991261193    5.04795382200834    1.45567643080596
O         0.16318458623682    6.18824820651034    0.25220894376180
Cl        0.33275031812188    3.70192841171548    3.11442179605521
Cl        1.12815228636886    3.42115866516133    0.00551412853052
Cl       -2.01214486543886    4.23841852042830    0.94531915310500
S         2.54639460472914    5.82835192280589    2.11998812576344
C         3.42283274425121    5.51598181870771    0.65350048406778
N         4.53443422800715    4.78930264786930    0.69900672663340
C         5.25665817434554    4.50717652784317   -0.52846991780403
H         6.32851402525400    4.58612090974293   -0.32141333110670
H         4.97843414200828    5.26428514294028   -1.26387113126625
C         4.91606039930457    3.12739333556297   -1.08271341242495
H         5.33312030618807    3.02440811498860   -2.08059980976233
H         3.83497639102895    3.01983193584104   -1.13173328476125
H         5.32488293129341    2.33705897359543   -0.45863036884702
C         4.96797442347310    4.13471193330231    1.91926957762455
H         4.89238932435615    4.85558259466536    2.73869717082814
H         6.01785215224857    3.86361303181568    1.78798878188176
C         4.14538479621444    2.89724933751504    2.26832750113961
H         4.49712346317467    2.48232163575663    3.20943585793130
H         4.21822636038502    2.13818442846347    1.49606657689010
H         3.09917122303326    3.16392924242822    2.38042558363473
N         2.98569404684220    5.94243147129172   -0.51052840879637
C         2.36605447958713    7.03697949652641   -0.82611536584893
C         2.50032014641494    8.28845152382845   -0.05355476433574
C         3.69587746870053    8.58927166475172    0.59366551550562
H         4.53895820870123    7.92220261675995    0.48925538082223
C         3.80691351000832    9.73861155147154    1.35236078305431
H         4.73802133598089    9.96470469460971    1.85015013220277
C         2.72582301784604   10.59683349216417    1.47356221901046
H         2.81091991930331   11.49330110949032    2.06976984734718
C         1.53324522648396   10.30089227343920    0.83441105205920
H         0.68618808559463   10.96246629499591    0.93298995152122
C         1.41474594504613    9.15169310621171    0.07303235640770
H         0.46742805126666    8.90340213848024   -0.38192434948504
N         1.69393628464801    7.08684464496153   -1.97158505398093
H         1.22370246706694    7.94370085717926   -2.22669901470257
C         1.32474255860459    5.89832974429679   -2.69500131465402
H         0.91743133563606    5.15964975381694   -1.98890546458617
C         2.54425119480700    5.24298445784595   -3.34727118299113
O         2.18047444607094    4.08813162330541   -3.88208984952842
O         3.64775318384231    5.71826328902386   -3.38855905851491
C         3.17639871158022    3.27574378771055   -4.50911091855527
H         3.13269355387850    3.46132615646307   -5.58826949670433
H         4.16069753016452    3.57894701232780   -4.13926547209403
C         2.87522919336018    1.82172438964945   -4.19269680033204
H         3.63399357410406    1.18269393421499   -4.63514024335974
H         1.90171458090075    1.55231588393318   -4.59229853110045
H         2.85920481471197    1.67167537345898   -3.11684021438264
C         0.30721811315567    6.23974732530681   -3.77720298907486
H         0.00885516219490    5.33753028733756   -4.31055592022290
H         0.72528956429966    6.96200044944659   -4.47981113580501
S        -1.18967864834566    7.01764695893748   -3.09933801588739
C        -1.89907386281290    5.58757775034901   -2.20365601578610
H        -1.27019540129355    5.40516677351892   -1.33123937913251
H        -2.88005869885488    5.93162624628572   -1.87664216294753
C        -2.00419213126849    4.38748896218790   -3.08404820215186
C        -1.23362627061796    3.25847760211510   -2.83514424940390
H        -0.57427698247152    3.22927803178258   -1.98098101986249
C        -1.32236681986559    2.15902924664206   -3.67110306762938
H        -0.72452215161368    1.28414108389018   -3.46272565839024
C        -2.17007765699753    2.17941289649262   -4.76499160376260
H        -2.23576505840925    1.32121602135060   -5.41833333557896
C        -2.93817947695939    3.30409621259347   -5.01984870847160
H        -3.60352534075740    3.32473195059080   -5.87101047229226
C        -2.85540056240863    4.40191535034504   -4.18425008890944
H        -3.44722119371784    5.28435507434961   -4.38432764758032
P        -0.99075432815318    6.66263369221136    2.93756624055214
C         0.08861392552315    7.26121900423306    4.25943094955448
C        -0.07371152831688    6.85984565215654    5.58051508003720
H        -0.90423365806347    6.22306888795178    5.85298054957052
C         0.83050264307128    7.27933472061466    6.54045093349691
H         0.70455222556203    6.96775783676954    7.56705463351768
C         1.89744834113515    8.08864707614310    6.18674718688814
H         2.60307729024199    8.40766562420225    6.93965091159619
C         2.06644490126702    8.48124411203438    4.86775178832947
H         2.90348256088957    9.10286967080138    4.58680756353622
C         1.16994058602422    8.06609968500726    3.90305930457070
H         1.30143900630517    8.35144430685955    2.86853766917173
C        -2.51770234149676    6.15448252217907    3.78642365559122
C        -2.74244632705359    4.82463364312865    4.12451559682817
H        -2.02270345577077    4.06735344608932    3.85334593379388
C        -3.89586176689859    4.46473335218582    4.79798811568564
H        -4.06556369078848    3.42912447189148    5.05221008537271
C        -4.83058517523624    5.42717327328932    5.13933825469643
H        -5.73232704075583    5.14448210950922    5.66200059299382
C        -4.61010955889075    6.75361506697770    4.80494546207021
H        -5.33897370109251    7.50644561876842    5.06725945805084
C        -3.46047775418172    7.11991031142167    4.13049641845821
H        -3.29608837139923    8.15453320771093    3.86557492793716
C        -1.50743529255697    8.14457249540734    2.02378481755587
C        -1.39891294133537    9.43211970053484    2.53890342956146
H        -0.96967283443228    9.59187749306317    3.51839163973730
C        -1.84133407085961   10.50910200201900    1.79011944401269
H        -1.76535405474775   11.50828365313407    2.19538083248909
C        -2.37707329770145   10.31091406726127    0.52757468733050
H        -2.70709680897404   11.15742731878511   -0.05645416630928
C        -2.49236200638238    9.02800806671807    0.01543799756816
H        -2.90348023532664    8.87154164847748   -0.97059802367866
C        -2.07109055234029    7.94580424211855    0.76611644194790
H        -2.16353806884007    6.93831029491748    0.38544394367781

