68
CSD_code = RURZUZ | q = 0 | S = 0 | Stoichiometry = C13H42B10P2Pt | MND = 8
Pt        4.86171791625080    2.15943455459883    2.01990922934124
C         4.98639619050707    3.16406556865131    4.13696069972232
B         6.45527797819567    2.89740856394873    3.38999026734576
B         6.49437354332376    3.70498268253711    1.69396801185832
B         4.83962644012768    4.32109554083658    1.50420459692100
B         3.94067496667872    3.91221349497623    3.13195275030717
B         6.27543785064951    4.16204329356493    4.62474634441859
B         7.20274482041407    4.45326188062798    3.12744811063345
B         6.15013144429395    5.39553672406594    2.01952906021212
B         4.53872699702388    5.50424962066998    2.80520062318860
B         4.68603564836707    4.82224520019676    4.44927202168023
B         6.05975827046982    5.69275609554550    3.75268491787841
P         5.30335339529141   -0.23462121457623    2.85546459315752
C         5.17639102828125   -0.62948883944999    4.66857866031468
C         3.74126568545723   -0.57613509664763    5.17508584987936
C         4.35120638263745   -1.63674545472360    2.08439567064353
C         4.70119673994783   -3.06294244397689    2.48981510499957
C         7.05027946114327   -0.79811209379110    2.58731665094456
C         7.48640650307774   -0.62843925395240    1.13923234247402
P         2.26334425772137    1.52475764399940    1.34478683343609
C         2.03774348298086    0.33564658407110   -0.07479014254297
C         2.76780086034425    0.77580543295547   -1.33562286107533
C         1.39388017095733    3.01944411137828    0.66091346328493
C        -0.01300287209939    2.84434612143406    0.10251089236491
C         0.95159049599265    0.78653665058874    2.45434228940011
C         0.61013938080291    1.65144382585399    3.65888690160066
H         5.12282818108656    1.65255410111184    0.60213407114849
H         4.62697380742294    2.46227061150801    4.88964343377430
H         7.06254644520588    1.91673011822256    3.66694970142210
H         7.22124988503453    3.33238801209375    0.84300822324920
H         4.24796830822222    4.46424953345300    0.49049933874499
H         2.79207564887673    3.63085437409970    3.19135179298621
H         6.75657074977199    3.94784320231246    5.68131162567242
H         8.37542110707081    4.58500288304538    3.16442068170751
H         6.55417501621663    6.22127917780038    1.28063407146067
H         3.80046923661747    6.39781544715294    2.57525262118341
H         4.00969132469861    5.09562998209967    5.37669948681305
H         6.41998948355847    6.71922537503291    4.20878258005848
H         5.78042261230461    0.11985569072682    5.18753834067127
H         5.62266204702351   -1.60592463086259    4.87128006301331
H         3.71353459297248   -0.64017506468727    6.26184857058826
H         3.15327949832470   -1.39869021859198    4.77314589769853
H         3.26435193281709    0.35575651492583    4.87536829966241
H         4.47928272694642   -1.51712264746415    1.00527968702551
H         3.29799999605805   -1.44240669803935    2.30370856353347
H         4.01868739769753   -3.75672501618936    2.00058234710691
H         4.61013685350312   -3.20774698586005    3.56347041179502
H         5.71128720552818   -3.32553143945984    2.18720578337637
H         7.15272636248278   -1.83756951919652    2.90795861141571
H         7.68753236518067   -0.18883499890583    3.23138900981970
H         8.53495874624497   -0.89550766547248    1.02292231823445
H         7.35546945019348    0.40812800152876    0.83311495607617
H         6.89706034094274   -1.25937297573163    0.47702503617715
H         0.97146845496542    0.20817810527544   -0.27687692074021
H         2.42563667345728   -0.63134216513853    0.24969085145339
H         2.73210809128701   -0.00937660866873   -2.08923484272973
H         3.80984864646193    0.99448393785113   -1.11028885002208
H         2.31753670576237    1.67097253070111   -1.75624762938254
H         2.05891057992443    3.40527068194443   -0.11498968297640
H         1.38164909619895    3.76846924846745    1.45420040579921
H        -0.37464318214655    3.80518135045990   -0.26015453380204
H        -0.70645543435889    2.49572224796688    0.86391548731139
H        -0.03271788558715    2.14740121768952   -0.73133962044662
H         1.33671448651402   -0.17823292215051    2.79678163116019
H         0.05216472614300    0.58919721326455    1.86680335226293
H        -0.12131287983736    1.14931834226006    4.29100942555253
H         0.19246890098839    2.60575669467891    3.34676569229981
H         1.49517465939353    1.85093576737168    4.25845682746082

