68
CSD_code = RURZEK | q = 0 | S = 0 | Stoichiometry = C31H24F3O7P2Re | MND = 6
Re        3.25794413812836    1.44995853030202    4.78724129827767
P         4.97956884679386    3.06932765014778    4.14276335626529
P         4.16765173084011    0.18107681896572    2.90834308147049
O         1.99710105528823    2.33783229772380    3.08492101105063
O         4.06310907774971    0.89280787130544    1.45956164160112
O         5.99115506152283    2.68543220389845    2.93046211890086
O         4.84652772030624    0.28794886662577    7.17126217395951
O         1.11530969153131   -0.73199914723507    5.33579864182300
C         3.46628020055076   -1.42861857457129    2.48652282511829
C         4.52209990769467    4.79732423229181    3.77402507510713
C         5.94207852646088   -0.27989267252578    2.96615203591626
C         6.24538198690505    3.30280377627911    5.42350555520245
C         1.85214250945697    0.08126365780248    5.03901791384634
C         4.27603268559239    0.70991690885063    6.26337854817255
C         7.60726486683751    3.16541922697295    5.19791311369639
H         7.96741294223681    2.89611636893237    4.21675797726925
C         3.19922878969646    5.21262580580910    3.82517507865452
H         2.42243634893553    4.50668737249125    4.08314652264740
C         5.69462820044035    2.72621383613054    1.54866957816895
H         6.43381203526756    2.07306456742238    1.07223616440127
H         5.81616213133624    3.75118693860609    1.17711520182527
C         4.28550522213508    2.26395632607099    1.21170263187622
H         3.57862102628148    2.88890365325264    1.77478507720955
H         4.09900435296415    2.40134730633978    0.14211380114745
C         2.92218765396131   -1.73901602527999    1.25025201521791
H         2.89582330785808   -0.99538709157300    0.46794260097475
F         1.27707141062153    1.54954068268991    0.11135696994939
F        -0.64247501684200    1.53729947641073    1.09718818068937
F         0.58376302980329    3.31017116497245    1.13456233355211
O         1.81356518574844    3.38023051952850    6.72165153401461
C         0.61455412822921    1.96999103564467    1.20852264491011
C         6.72383674556823   -0.03921177968848    4.08439123267985
H         6.28321545515650    0.42578663189691    4.95719298491553
C         2.36460202610001    2.65901906977149    6.02293439565334
C         6.50591958014926   -0.86858362476859    1.84007560478700
H         5.88627325118048   -1.05620384300992    0.97298131511409
C         8.62663045605361   -0.96211063497223    2.95450072365281
H         9.67388885731910   -1.22619741720188    2.94810654071978
C         3.47306698096965   -2.36848674112047    3.51082572965115
H         3.88654667730847   -2.09509974984564    4.47575708480977
C         8.06524359536045   -0.38032921818921    4.07851554133949
H         8.67002702195820   -0.18692479245451    4.95209016510794
C         7.84593677559802   -1.20665066329691    1.83477138386623
H         8.28378963591879   -1.66278529886361    0.95874807696618
C         5.77837856882581    3.62322082098159    6.69388358783486
H         4.71092057840646    3.70648040710490    6.85706662608445
C         8.49607157419249    3.35632946022884    6.24199307869463
H         9.55654399362614    3.24509046555297    6.06850356872014
C         5.52691634824350    5.69603096949525    3.42780861969272
H         6.55592310715041    5.36164047533378    3.40203793102148
C         2.94422322919970   -3.62560915906591    3.29466781472453
H         2.94333376258351   -4.35627615075915    4.08982259766596
C         8.03141786443420    3.68572255326850    7.50388343099320
H         8.72973325931468    3.83196804203597    8.31433655501725
C         5.20256324263494    7.00545136760152    3.12986897447777
H         5.97985440803541    7.70558500696989    2.86066513814718
C         6.67003391109443    3.81979671993654    7.73029976235276
H         6.30599889798815    4.06976881334408    8.71517013114490
O         1.20878257935037    0.28029959347918    2.79414468072403
C         1.32882234026139    1.46147777701694    2.50148902902458
C         2.40360064532695   -3.94063058477590    2.05740715555556
H         1.98076408415057   -4.92010560168087    1.88886345828654
C         2.88104836832419    6.52698352771624    3.52867219390132
H         1.85205190538652    6.85085318013224    3.56563829189088
C         3.87989798501757    7.42059778370695    3.18097237189315
H         3.62991977575340    8.44492064038115    2.94790458555609
C         2.39214010483215   -3.00017822574819    1.04124405333698
H         1.95903365283210   -3.24577340475911    0.08261888110364

