53
CSD_code = RUSDAK | q = 0 | S = 0 | Stoichiometry = C22H26N4Zn | MND = 4
Zn      -17.31066318122706  -14.54874457070581   -3.72860398381208
N       -17.91861936069236  -13.99253232462120   -1.92777141980980
N       -18.88018579285886  -13.52966864560221   -4.26103052820342
N       -17.26948398283346  -15.92949363816458   -5.16122788334948
N       -15.37766242055333  -14.55019504564074   -4.02866675352430
C       -19.09189929610156  -13.37932639467329   -1.92654477207720
C       -19.73642862780300  -13.05468102161491   -0.71564422290898
C       -20.92603437385682  -12.41628424303974   -0.43231577623700
C       -21.87728082594874  -11.89593103550585   -1.29154083851933
C       -21.83713703673040  -11.93805497598276   -2.67617202401874
C       -20.89069436681897  -12.48720725291270   -3.51180104224849
C       -19.65623260414144  -13.12644446073120   -3.27128774709721
C       -19.32889574680713  -13.64564814771131   -5.62636635021316
C       -20.26094126903509  -14.85517875142583   -5.79989562741613
C       -19.73470275394379  -16.13279766459769   -5.14300967243299
C       -18.40546339017032  -16.63967506234981   -5.70259980591320
C       -16.05734039787611  -16.12910454364117   -5.64840399480586
C       -15.80707798370491  -17.14832068788987   -6.59471224758268
C       -14.69050143493669  -17.49458142553439   -7.32353564198567
C       -13.44566408126036  -16.88929434447327   -7.37694619642755
C       -13.02998231471863  -15.82081668002777   -6.60254854355954
C       -13.69475675809215  -15.16041998455870   -5.59085756984574
C       -15.00180834541423  -15.27008829945027   -5.07347967836630
C       -14.41485645499979  -13.83609752101978   -3.22598605433423
C       -15.07867313706264  -13.32551792783534   -1.94868040215535
C       -15.68742966763556  -14.45556360991441   -1.10844915734886
C       -17.13469567668050  -14.14699628623271   -0.72743940270087
H       -19.21069147075584  -13.39417353396428    0.16636260377538
H       -21.14785188011141  -12.31592495241910    0.62460339085460
H       -22.73851170112490  -11.42094340122403   -0.84093013677635
H       -22.67905238755033  -11.47574534780965   -3.18021859451063
H       -21.12324937135647  -12.36717011153846   -4.56119996241484
H       -18.43600133671071  -13.79473508694018   -6.23746353033952
H       -19.83006670830134  -12.73966413904858   -5.99153732381475
H       -21.23151458765888  -14.62564806871898   -5.35380674149338
H       -20.41168323768816  -15.02756345302121   -6.86819667700077
H       -19.62412112745952  -15.97692097896763   -4.06679807982530
H       -20.48381946783478  -16.91516566814878   -5.28926457552299
H       -18.32445126438736  -17.70888669672494   -5.45238816392277
H       -18.42613891421053  -16.54830940811812   -6.79821050218868
H       -16.64993453405844  -17.80239198535041   -6.76925741327481
H       -14.81792665998932  -18.35556122261601   -7.97074187852158
H       -12.73161296546836  -17.29490306045418   -8.08109769327548
H       -12.02366255773507  -15.46566899789739   -6.79553233313641
H       -13.10889268916386  -14.37585095920108   -5.13180873762165
H       -14.00744072264536  -12.97274333389575   -3.77277134212200
H       -13.57862958349767  -14.49918547754400   -2.96105962048443
H       -15.86764898210653  -12.63042009044232   -2.24315078526192
H       -14.34078021442780  -12.76930853131747   -1.36790514135056
H       -15.68060602565120  -15.38463663896158   -1.68282202639529
H       -15.10624064578409  -14.61821792814380   -0.19926661904768
H       -17.52787851130015  -14.96444308091256   -0.10504751857356
H       -17.14928117111124  -13.22365330075946   -0.13197326085796

