50
CSD_code = RUSDEO | q = 0 | S = 0 | Stoichiometry = C21H24N4Zn | MND = 4
Zn        4.70113077355807    1.48496668086383   17.93743830801356
N         4.17869371152802    1.62418599917361   19.83676144450116
N         2.71933475517222    1.33550032622369   17.69856168317760
N         5.13764994647589    0.37743356132152   16.38440996509707
N         6.44752550105752    2.33625855911773   17.44554820982070
C         2.87519313711879    1.54136344672529   20.04577311940930
C         2.35817850357107    1.41750855683085   21.35218247955875
C         1.07354619519890    1.41721884939357   21.85364417447100
C        -0.12845644329276    1.61075922684747   21.19613558106463
C        -0.29059872601759    1.75430730816774   19.82821258130719
C         0.64451610393009    1.66309745269477   18.82046211234379
C         2.04675872884331    1.49742772948875   18.82566032507220
C         2.01191814590828    0.99739484135580   16.48466008988491
C         2.94526342633124    0.54427084285142   15.35851441167318
C         4.05016046903503   -0.40496781852621   15.84788979268710
C         6.06166144667981    0.91606674309957   15.61136443257009
C         6.13229168371731    0.67749921076618   14.22114689370322
C         7.11860068653547    0.93473835236009   13.29496931103087
C         8.38593454613456    1.46274618096478   13.48303581174144
C         8.88021370485914    1.99332960633771   14.66220417837277
C         8.23218308426359    2.22013171983905   15.85799684854600
C         6.94692687646455    1.86465562495638   16.31459598619055
C         7.18302776621212    3.27651527744052   18.25528537619669
C         6.47552925000279    3.46253889076630   19.59317840728869
C         6.47789813472099    2.15935518532050   20.40113991423321
C         5.09326549773829    1.81317185963044   20.93690319013554
H         3.11429781283058    1.26034896007367   22.10898592264651
H         1.00274763757694    1.27392547839240   22.92622692483922
H        -1.02243096204698    1.64741766707013   21.80409007829889
H        -1.30697007379863    1.93117024283055   19.49384970105140
H         0.22312472078332    1.78603040357451   17.83204422594341
H         1.43010545874338    1.85461557425029   16.11245149291177
H         1.30712408864315    0.18090720486681   16.70106136933398
H         3.42007307876212    1.41747472400444   14.90602627687551
H         2.33681568266868    0.05427634375984   14.59510149896895
H         3.65981175170553   -1.02506429918070   16.65844094233820
H         4.37760034752521   -1.07429199489012   15.04389940332590
H         5.25857769583530    0.19754450786016   13.80327853694576
H         6.88385315725228    0.63361599036496   12.27975620966584
H         9.04333382220107    1.47810084400050   12.62403107758252
H         9.90474038234454    2.34675618260195   14.62280537087623
H         8.82819551613085    2.76595079736131   16.57640168467088
H         7.26332326160593    4.24292688428292   17.73684182193457
H         8.20065310859015    2.91378816151082   18.45725451863141
H         5.44720971196407    3.77076176269234   19.39270740100881
H         6.96486525558045    4.26289804684608   20.15055378195122
H         6.79782513653188    1.33477867302230   19.75963323142142
H         7.17662142816843    2.22597475912746   21.23682344356750
H         5.16893287381502    0.89666479241241   21.54062545532432
H         4.74442220083660    2.62655407915169   21.58883500179580

