65
CSD_code = RUSFOA | q = 0 | S = 0 | Stoichiometry = C26H34CdN4 | MND = 4
Cd        1.84473477957028    0.97942537970098    2.31802329604121
N         2.26316497989432    2.75987086524428    1.20780854434025
N         3.72289674798558    1.67166294193118    3.07599225592738
N         1.29853712685638   -0.94462175561883    1.55775509023913
N         0.09309911876166    0.43036382048710    3.41835665536699
C         3.37239073039032    3.41622489844403    1.50598299089365
C         3.68960651737043    4.64358741668696    0.87954887985383
C         4.77732935486421    5.48670887500494    0.94006579642370
C         5.94392766955284    5.37651664600748    1.67649619596399
C         6.25069259450527    4.34829162176375    2.55056517383425
C         5.51295114932667    3.23886794280284    2.90084641051843
C         4.23819984267865    2.75751779341651    2.52312591836679
C         4.45638958565415    0.83599526391584    4.00387121646220
C         5.48207801320908   -0.07486941862873    3.30001280480428
C         4.89078502338836   -0.84407457436953    2.11704074140790
C         3.88892116747861   -1.91800747705876    2.53815763243211
C         3.17170748783542   -2.56951206917719    1.35408769261644
C         2.19427405586344   -1.61566475670447    0.63878341435190
C         0.24691231625465   -1.53659178509869    2.09973565046333
C        -0.13875142166653   -2.84196081204994    1.71664403192019
C        -1.19942111939784   -3.65487019957792    2.05108497805978
C        -2.25724600548536   -3.42163652507230    2.91248231772892
C        -2.45398045241485   -2.26913617430598    3.65303261594659
C        -1.68734659443044   -1.12701174413974    3.72761264654368
C        -0.48053882214389   -0.72178772271318    3.11216891790282
C        -0.51647171251938    1.40459498428180    4.29965466134637
C        -1.63735450655722    2.20923764908854    3.61164442411174
C        -1.21978020839870    2.78412654579145    2.25672483709757
C        -0.18023461506332    3.89804338287769    2.37052501493196
C         0.36330792861318    4.35471249573911    1.01521337422657
C         1.24428136343137    3.29278398257303    0.32742550712831
H         2.93361662555608    4.99043119560572    0.18940864946137
H         4.70771450630652    6.36520266932197    0.30707113090111
H         6.67853249064104    6.16187241967014    1.55958777995251
H         7.21432498797751    4.42778390550057    3.04288456082771
H         6.01361646045159    2.62220057908329    3.63374900961187
H         3.71769400788774    0.21103236027999    4.52178585389002
H         4.97208597167738    1.42419979395170    4.77749443945231
H         6.30474694758119    0.53901862251448    2.92721842174726
H         5.88830778773366   -0.77406488251201    4.03521831983339
H         5.70663515811708   -1.31919737818416    1.56478447362538
H         4.40953752058252   -0.12317128724970    1.44886451401375
H         4.41793007843581   -2.69453996858616    3.09805954040955
H         3.13119572783407   -1.48595149789841    3.19926625554238
H         2.61561569763412   -3.43191877528981    1.72785130503953
H         3.90310452037092   -2.92861388953919    0.62570586269906
H         2.76751789831249   -0.83370146846162    0.12462499486563
H         1.65313304015292   -2.17505543573087   -0.13876148071843
H         0.52102212388312   -3.29786908952004    0.99208702690524
H        -1.20632508575301   -4.62033774343921    1.55600087146080
H        -2.99274562351889   -4.20793289623867    3.01672253404900
H        -3.34150642282716   -2.26285291857209    4.27719561603524
H        -2.09089728477692   -0.40082388779641    4.41890378995206
H         0.27914027462863    2.09304344457257    4.61192662583398
H        -0.91648312903107    0.94579767917700    5.21609518170848
H        -2.49682155307168    1.55487698186137    3.45123948670990
H        -1.94699460049456    3.01599061997221    4.28074367418389
H        -0.82688765960815    1.96513884142519    1.64628411602872
H        -2.10760019111685    3.17935357464174    1.75482656031863
H         0.66438374760435    3.56230322086260    2.98026579579494
H        -0.63549229552994    4.75620744847097    2.87313645887115
H         0.95631111240890    5.25777203839005    1.17490481469009
H        -0.46356998398642    4.60696855779830    0.34658067106932
H         0.61453934221627    2.44784747254798    0.02094241654472
H         1.66915570628533    3.72150220208331   -0.59233895852252

