99
CSD_code = RUSKOH | q = 0 | S = 0 | Stoichiometry = C40H48N2O6Si2Zn | MND = 4
Zn        6.14839613052402    0.71472979672433    8.93472943632623
Si       -1.95395906245370    7.42650248631734    2.70282648471641
Si        3.20456793981449   -6.52581072219246   17.94883891225865
N         5.27838667955051    2.42016246182653    9.41829635758692
O         7.29380765143358    0.64370877012054   10.35239623845403
O         6.89831755409978    0.70583600718106    7.25842424521730
O         0.53646703434635    3.56034892467144    5.40286189122024
N         5.01405833299499   -0.87126125140367    8.69812414367413
O         2.21720419591521   -4.30725979077591   13.21654915489939
O        -0.39084330460843    4.44429414337127    7.24909541046035
C         4.36001433939672   -1.42674175166462    9.79858212610809
O         2.02041002548611   -2.27922655454719   14.16693556205012
C         6.57195024875356   -0.05084577064657    6.27292460239313
C         3.81707606955564   -0.57503793821915   10.76161647252345
H         3.88968720712232    0.49244492223090   10.61847090268659
C         5.60120441496630   -1.10196579041698    6.35261541934547
C         4.00351229959151    2.57316576505497    7.38596971208656
H         4.83194009730526    2.11474664408050    6.86769117875963
C         4.12211470193359    2.82956143603996    8.75313660238410
C         1.79765433232310    3.52466196014911    7.37992367179423
C         3.08154163579983   -2.47010187059406   12.04720064927680
C         5.31278402589958   -1.85596391372057    5.19094049968937
H         4.57668210922673   -2.64476497046793    5.26691365299200
C         6.85801966462760    2.84674516624030   11.20965934068614
C         4.27366487644405   -2.80910306906421    9.98815487468852
H         4.74217067800924   -3.47802894595970    9.28131936784982
C         0.53773613254355    3.90341150400427    6.69681054718416
C         5.93437645891745   -1.61455708575893    3.99931973811235
H         5.69906659313739   -2.20322438176720    3.12625062096584
C         2.85757828939193    2.92067501224951    6.70482119600437
H         2.77210690011868    2.72674873291959    5.64740065081314
C         7.25328907193755    3.82615329187650   12.15148953142817
H         6.70588875289266    4.75870869624340   12.17529848813968
C         3.05550340185690    3.42816855825766    9.43010227236048
H         3.11634206291293    3.58891901834753   10.49672278748989
C         7.19711303280869    0.16237306781565    5.01533505864426
H         7.93124663548929    0.95215494948119    4.96470787516282
C         3.63887577084488   -3.32374200092562   11.09913494411973
H         3.57918280474700   -4.39062620489886   11.24621723966462
C         3.18549309817194   -1.09080415314194   11.87110771455062
H         2.76067770394843   -0.44199606949501   12.62179986153984
C         6.89028307569331   -0.59200463171449    3.91847660319424
H         7.38637111433839   -0.40210517473923    2.97761100363961
C         4.92381210488265   -1.45656204689974    7.54008385364906
H         4.24280900446139   -2.30864079146285    7.45185500829646
C         5.76939127866241    3.16154651973782   10.36819431652127
H         5.31367842476442    4.14253636759330   10.53513227550002
C         1.90853849004726    3.77080892731251    8.74661899520182
H         1.07464358605646    4.22752071679397    9.25794368370975
C         2.39452158507362   -2.98070418285567   13.25781408185680
C         7.57176631880949    1.60455455767794   11.15858757942231
C         8.29091210905616    3.62121130819177   13.01459849807939
H         8.57486767908588    4.38197492226263   13.72505052587114
C        -1.85744218039378    5.60799441018169    3.30241593955876
H        -2.76075214322550    5.35964197181604    3.86120535005102
H        -1.83269542142142    4.93478552565526    2.44381409634736
C         8.64297899692438    1.43460224628313   12.07571052488225
H         9.17601268597917    0.49710432143270   12.03210454704518
C        -0.63722543096462    3.87258287120768    4.65448977389294
H        -1.51844007524722    3.67573228445943    5.27461914352715
H        -0.62273290967627    3.18730075741669    3.80361609225051
C         8.99038528968694    2.40649203357937   12.97060637474842
H         9.81240119888051    2.24276411377930   13.65247369572590
C        -0.64728437278990    5.32503743236679    4.18349796849794
H         0.27426609465665    5.52162665251087    3.63280786735814
H        -0.66477527075917    5.97240828256082    5.06095704537196
C         2.61656047664150   -5.28892071135362   15.41391927579237
H         3.10990427919434   -4.37740184750154   15.75420547060971
H         3.37135480026861   -5.93457819628460   14.96139639110573
C         1.59166360594385   -4.91355163248361   14.34616028619634
H         1.08918128077727   -5.80281101751275   13.95774722264834
H         0.85241624715375   -4.22013203377722   14.76091656368588
C         1.95814398523248   -5.99439215441487   16.59238384084313
H         1.42046395164492   -6.86927931522526   16.22329657323208
H         1.20646660203841   -5.33034612076520   17.02077874140104
C         2.22349101547637   -7.28442742692413   19.39822526499738
H         1.54207537888720   -6.56259242849598   19.83778091565746
H         2.89027952555051   -7.62536414157273   20.18381783747738
H         1.63472480804656   -8.13757316919946   19.07597844867559
C        -0.37598375976301    7.86255327522945    1.72070961203356
H         0.50359934623056    7.85127009442785    2.35709994787108
H        -0.44738514803657    8.85360773727017    1.28319234949868
H        -0.20457260693858    7.16016951223969    0.91032078535391
C        -3.47891976221790    7.59700225977172    1.56868723389772
H        -3.40635252581301    6.94700373168240    0.70229438540139
H        -3.58356208704667    8.61426833518995    1.20534082323326
H        -4.39455220731210    7.34206036097837    2.09294547625049
C        -2.12792123558801    8.59189799887984    4.20222101629313
H        -2.98834345093830    8.32854613551141    4.81007095277263
H        -2.25304631475135    9.62374924059751    3.88795228071620
H        -1.25141749868336    8.55016788861424    4.84158292859688
C         4.40158783250563   -7.82982401258680   17.23271513113919
H         3.86368716519453   -8.67954873906286   16.82260814096808
H         5.07311755711582   -8.20729420166949   17.99778739443286
H         5.01524092879889   -7.41462748127044   16.43886839848443
C         4.18962244890587   -5.00896756116594   18.55390262657417
H         4.82659372924130   -4.61026997039094   17.77012784576630
H         4.82851816143252   -5.26324200244251   19.39426544320692
H         3.52856565043627   -4.21002088089396   18.87590011470440

