59
CSD_code = RUSLOH | q = 0 | S = 0 | Stoichiometry = C26H24CoN5O3 | MND = 6
C         8.88665190165456   16.58821413275910    5.37429355540960
H         9.11156826620761   15.95227622412218    4.53153834091314
C         9.12480083317402   17.94815531943736    5.31828115914838
H         9.54526063648797   18.38355278726525    4.42383503714243
C         8.82543174287472   18.75088194119854    6.40692073387274
H         9.01229993437527   19.81411033102152    6.36515373974126
C         8.29046488746193   18.18626243470935    7.55332488278868
H         8.06683201725736   18.80907941028892    8.40767219090423
C         8.04397484036360   16.82668593908663    7.61168705257755
H         7.64741578389481   16.39185219236513    8.51700263329063
C         8.33324390932508   16.01577228187922    6.51790163431314
C         8.09290675684218   14.55057559028093    6.52636343718960
C         6.99737900808176   14.04095085453858    7.21151205716145
H         6.34761721247217   14.73498155406691    7.71792824317139
C         6.66245488642329   12.68097698659968    7.25739071311222
C         5.46266047416275   12.29157265056149    8.07930477737351
H         5.01803325260612   13.16689077285663    8.54220109723695
H         5.74627619607485   11.58944379348225    8.86293348314500
H         4.71209099916483   11.81211621812634    7.45155255687058
C         6.95917054840743   10.37843489542472    6.72438541398482
H         5.92455382780610   10.23209671797030    6.38006146536367
H         7.01575772923505   10.03295332361078    7.76749092089097
C         7.86853319762548    9.54183981728379    5.88152332807630
C         7.72372304363771    8.16580314647454    5.77518581012123
H         6.93876942226326    7.66837415085973    6.32406931082500
C         8.58674779404825    7.45343535255378    4.96153450330258
H         8.49509692489205    6.38294378010569    4.86188584204517
C         9.56606190126004    8.15428339431250    4.27094942042635
H        10.25580773748386    7.64717118692494    3.61559737510409
C         9.64680284810971    9.52323427543998    4.42845494317106
H        10.38696519041123   10.10286977057179    3.89580587041652
C        11.77299483308817   12.13382842969310    8.61546197142194
H        11.94746533702049   13.14979234001365    8.96445304999822
H        12.72687996402223   11.61259178115899    8.58713613400244
H        11.10040482174633   11.63179948617485    9.30601898281293
C        11.15205258594765   12.18116555180015    7.23492086472556
C        11.94799219479039   12.65997737136308    6.19216616202214
H        12.93057231561994   13.03002641872156    6.43321149615074
C        11.51297632095977   12.70943365782731    4.86538965154039
C        12.42868695423515   13.23129506336572    3.81785444312274
C        13.81002905499641   13.06989513494734    3.87952868483140
H        14.25618395007400   12.52707633997514    4.69962516619744
C        14.61386462417086   13.57836495885603    2.87569919047347
H        15.68501703486052   13.44506636928188    2.92703830548791
C        14.05103077639833   14.25345558121679    1.80455617061298
H        14.68432436444855   14.65218667548850    1.02539254082243
C        12.67629627458950   14.40815381648304    1.73174759814204
H        12.23222460187212   14.92709298222628    0.89538035196641
C        11.86757849429856   13.89429694964508    2.72759480220690
H        10.79431181945835   14.00354244146004    2.67739409838372
Co        8.85257046848679   12.04168706513086    5.54632957041778
N         8.82427320280403   10.20848519918663    5.22532779924077
N         7.34655592531924   11.76278111118872    6.62011598005419
N         7.75821282541006   12.33467358592174    4.07231979359298
N         7.96297184544789   13.16627050393299    3.27194159423967
N         8.03481123896413   13.92265067501425    2.43004213975473
O         8.93135762092689   13.86130845392276    5.86195966901939
O        10.37660699058991   12.33026292318311    4.45200551979334
O         9.96339985536616   11.77594790665257    7.13454673987429

