73
CSD_code = RUSWIL | q = 0 | S = 0 | Stoichiometry = C23H37B9P2PdS | MND = 7
C        11.69581621439833    3.94079729110635    3.36981563187782
C        10.96352960830024    4.96320590621568    2.56273688301209
Pd       13.50679108394069    5.71751757995683    2.61110605238920
B        13.15930451680223    3.52060720106957    2.46276400789395
B        11.69103703698093    2.44836413030247    2.66929952293394
B        10.20853883022291    3.42333696728294    2.67783676590927
B        11.88272910881379    5.31517636075662    1.13622819493608
B        13.14977275337658    4.17442288558527    0.86448917889577
B        12.47582349242144    2.55450775595338    1.06329165118563
B        10.69810762405289    2.62680109047912    1.19037766260013
B        10.29992992175039    4.37661297557115    1.17823478068279
B        11.59976760756032    3.75301094999226    0.14091984723687
C        11.94899680642851    4.22496996512420    4.77813041801079
S        12.23387781528007    2.96162743574670    5.94443674002119
C        12.46915438455010    4.11677764673706    7.22007744017516
C        12.34652950302302    5.38734826764451    6.75455368994605
C        12.05248800526582    5.45507765446038    5.37489478347250
C        12.72061007039756    3.66154956120752    8.61351396755415
P        15.66410743725450    5.54026615979497    3.72168516305546
C        16.80507055354848    6.99242541972186    3.63330235081516
C        16.74719977811348    4.35858100613305    2.80981041918304
C        15.73348884247597    3.62993274200443    5.74854663536910
C        15.86637502635012    3.17942387437299    7.04777595573991
C        16.16617493527473    4.06957002641009    8.06579576954104
C        16.32560967573289    5.41319200337133    7.77382967276677
C        16.20139766251870    5.86424224282729    6.47229951535418
C        15.91922880005133    4.97508881194880    5.43999976544376
P        13.24880640669101    8.08886829462562    2.61808413685453
C        11.58185702520813    8.87683098249398    2.47823205325178
C        14.06563806236732    8.82280755754498    1.14050744098176
C        14.10453851514766    8.50363732851857    5.21791961956711
C        14.53869377221468    9.22947588504096    6.31296462910266
C        14.78201149881401   10.58691494345065    6.18824370710433
C        14.58789726705989   11.21150156945401    4.96690711502315
C        14.14153888030235   10.48716539488032    3.87606895595779
C        13.89502386193981    9.12426373553556    3.99129268603513
H        10.51369782424471    5.79611842423306    3.09932895368314
H        14.02942232086962    3.07979797362400    3.14027365431585
H        11.81650275144268    1.52572539069770    3.39157159012435
H         9.28027853665441    3.30526482664744    3.38631042932426
H        11.68924574522361    6.37634970445680    0.62840384023032
H        14.11339294813347    4.36777756502926    0.18864091445936
H        13.03791667387989    1.60757857488254    0.64221457524249
H        10.01386440525543    1.78278495310344    0.73668636228728
H         9.35058413270026    4.94002639132544    0.76547955626208
H        11.45745365607145    3.77939134508204   -1.02908613795322
H        12.45944087949823    6.25736960633965    7.37881595049550
H        11.89587712876023    6.39115223976739    4.85130465613820
H        13.45444902946303    2.85849137644462    8.63095985281303
H        11.80115148014440    3.28600394149357    9.06608442425446
H        13.08891892338292    4.49016183184375    9.21441295311798
H        16.37441263781660    7.86806741076125    4.11221753396976
H        16.95626030655324    7.22160158066833    2.57932873838545
H        17.76469040547029    6.75750206661993    4.09103561939383
H        16.30018035598801    3.36927787640421    2.78376409621524
H        17.73523469238319    4.30669764762056    3.26572050155913
H        16.82960437069763    4.71343946628564    1.78314387620680
H        15.48017874890280    2.93050405518640    4.96589641428178
H        15.73345783446643    2.12955839825891    7.26652222115283
H        16.27083296707672    3.71906290160068    9.08222856985041
H        16.55272054063511    6.11399410334291    8.56497422249370
H        16.33180833972105    6.91439786580338    6.25899333028803
H        10.99987257546056    8.66126345423692    3.37302033084789
H        11.06337027561890    8.46601073992685    1.61445702659582
H        11.67539322173393    9.95638021097047    2.37048042346910
H        13.77266186440635    8.22677467153119    0.27672988667276
H        15.14545988990913    8.75193851852078    1.25691627337446
H        13.78030003462963    9.85976518819172    0.97507327599570
H        13.93799782966876    7.43582609385050    5.30155853288788
H        14.68950338748186    8.73610418324650    7.26238978894487
H        15.12456591382614   11.15779898623089    7.03866059834681
H        14.78187763741984   12.26964029066030    4.86598486582961
H        13.98965734983077   10.99070054182054    2.93272948860854

