59
CSD_code = RUTGES | q = 0 | S = 0 | Stoichiometry = C23H27CrNO7 | MND = 6
Cr       -4.00274285944544    2.69746537229954    6.27211758660775
O        -6.56120431132790    1.10525300562755    6.34125108456883
O        -3.16172095500931    1.02928700083161    3.91181401424423
O        -5.23757600337218    4.89989687045501    7.90787154783678
O        -1.13727320939036    3.58636006393667    6.51586498780787
O        -4.92441378651094    4.58898765087304    4.10932560343659
O        -2.84728159673188    0.32253350856090    7.25761421007042
O        -3.78269580458642    2.93487954351360   16.05555644795735
N        -3.99767104288235    2.64592617424164   13.25667306302866
C        -5.61932606338081    1.76156438556489    6.29255868233929
C        -3.43779179347406    1.58627740834396    4.87602546467222
C        -4.71439012278162    4.00548914881573    7.40674236849335
C        -2.25437938303702    3.34538898150853    6.38878154431699
C        -4.56769523609660    3.86560252901272    4.92852232815198
C        -3.33740270221084    1.44698165507220    7.68256717076745
C        -3.26140961105453    1.50965818559989    9.19426713429482
C        -2.35909926836980    0.31225195790110    9.56171728160998
H        -1.35104623330359    0.66883040629184    9.77866032993009
H        -2.71948591602673   -0.23576914878232   10.42779662363585
C        -2.32272696532544   -0.54320996569211    8.29694656664033
H        -2.99952221120443   -1.40406804240810    8.35445244579850
C        -0.93384243679905   -1.00701625371966    7.88825892772831
H        -0.98219237603699   -1.53930030748121    6.94207278978617
H        -0.52638951180796   -1.67013076062642    8.64671746169367
H        -0.27332215257999   -0.15074503446060    7.77011444290491
C        -2.64922673432933    2.81905481102310    9.70090048906902
H        -3.29486383301190    3.64985125704423    9.41491635307075
H        -1.66929892778415    2.97855312706112    9.24538841381759
C        -2.51986251609920    2.78440777712796   11.21990650088636
H        -1.73894254752802    2.08198980758184   11.53027904339256
H        -2.21508932942331    3.77306331605718   11.56676170340696
C        -3.82727325546595    2.40323882034705   11.86821551074448
C        -4.82452496647136    1.84393231493090   11.18010886997466
C        -6.20496050351634    1.68050987446998   11.75753834540756
H        -6.19072648770397    1.92390148283980   12.81807946995096
H        -6.85380704296125    2.40647800128567   11.25554006009373
C        -6.78279707898544    0.28811289356866   11.52277153387830
H        -7.80361432118204    0.24332159956086   11.90640973328250
H        -6.19030508791140   -0.45647667279508   12.06040612815282
C        -6.76284871590330   -0.02242783134690   10.03184879497575
H        -7.37580722757843    0.70419579945716    9.49490735903341
H        -7.17711972695640   -1.01519734474355    9.84463255850565
C        -5.32872610060448    0.03644927706194    9.51987331613155
H        -4.75027288066041   -0.71990332365717   10.05431185389842
H        -5.30819999801279   -0.20403067987057    8.45434049139750
C        -4.71170078936990    1.42768418153699    9.73554170707325
H        -5.30724349316670    2.13674651713096    9.14062217314153
C        -3.37868531495793    3.82328104592999   13.83084254469144
H        -3.59158578285297    4.68675191400123   13.19879457699241
H        -2.28685913369464    3.71164345037261   13.94870446662047
C        -3.99355483328164    4.04599537562109   15.21562715786252
H        -3.52837425212646    4.89815221191637   15.71367817418510
H        -5.07267797254736    4.22967271034434   15.10340299761337
C        -4.34122956868069    1.77273822736672   15.49008105106755
H        -5.43225176691280    1.88915523208638   15.40093839075969
H        -4.11839586581746    0.95751029542191   16.18048668197233
C        -3.75258138064270    1.49212875571446   14.10669676995051
H        -2.67099730801856    1.29578209123905   14.21428129880792
H        -4.22879370334468    0.61413934902009   13.66947537181738

