38
CSD_code = RUTHOD | q = -1 | S = 0 | Stoichiometry = C18H15I3PPt(1-) | MND = 4
Pt        1.07091555841959    3.94375594215582   -2.49694501371238
I        -0.76840151572619    4.90908984797261   -4.16986425871365
I         1.01447377308375    1.51551570432197   -3.43977743703668
I         3.47256455669589    3.72309418139399   -1.40103326602884
P         0.73943126238137    5.86232710540882   -1.36656591252056
C         1.46355436035955    6.10122653678263    0.29707829297333
C         1.33322169200425    5.02085566243508    1.16467160894341
C         1.78168075400221    5.10845024181051    2.46660864513081
C         2.36139560499234    6.28463097259621    2.91556674291192
C         2.48186495980348    7.36646765597648    2.06116236178427
C         2.03049978289566    7.28170354462803    0.75516358108528
C         1.23559783387730    7.35828701291938   -2.25866803932747
C         2.60435880234854    7.59295923478161   -2.38648954021562
C         3.05937079739386    8.64827017921049   -3.15285386508539
C         2.15447529433196    9.46745489683083   -3.80985202881806
C         0.79543948454670    9.22079722129149   -3.70745167503162
C         0.33235808442577    8.16679445522775   -2.94091762876012
C        -0.97203118860941    6.15335122328755   -0.80488676080327
C        -1.38677256762966    7.39118733023445   -0.32730159857542
C        -2.66640316395129    7.54122741765679    0.17317391928647
C        -3.52860267372821    6.45714488935876    0.22085262647694
C        -3.10775560604897    5.21490147448655   -0.22313609502103
C        -1.83085725721600    5.06429215052303   -0.73003752025028
H         0.89096075391272    4.10011764081790    0.79844188472363
H         1.68750427239394    4.26074303967235    3.12986227286227
H         2.72202652557614    6.35619639254602    3.93209900208515
H         2.93292192212454    8.28507688011530    2.41111500472750
H         2.13124439633019    8.13244960582278    0.09485719117981
H         3.30756910812688    6.93661363949116   -1.88897528932894
H         4.12160003014375    8.82539788351098   -3.24707272681637
H         2.51054807152061   10.29016589720391   -4.41429683344148
H         0.08975038202571    9.84541283211968   -4.23693439088153
H        -0.72765492343590    7.96188957099350   -2.88577225129343
H        -0.70731042373173    8.23320560250952   -0.35096315211137
H        -2.99297290799193    8.50817178887152    0.53108739358352
H        -4.52940149361848    6.58162286957067    0.61020192150546
H        -3.77456282118688    4.36602782131630   -0.17821577397305
H        -1.49470152084838    4.09422365415165   -1.08723139151605

