30
CSD_code = RUTMEY | q = 0 | S = 0 | Stoichiometry = C7H18Cl2N2Pt | MND = 4
Pt        0.24421934667808    3.29179655174530   -0.05097659277356
Cl       -1.12094973611706    4.97311848560442   -0.71786351181219
N         1.51354797318496    4.81700164513683    0.62639395088771
H         0.82559991913557    5.57813597569680    0.57383127959458
C         2.61314756658730    5.18120145439067   -0.26275536003469
H         3.10584414207365    6.10114112856259    0.07182989651567
H         3.35966828466299    4.38998878986791   -0.30749376273172
H         2.21501598602035    5.33933839560555   -1.26439411919233
C         1.89242919869505    4.63763918735172    2.03337793149142
H         2.64123307328935    5.40562390409993    2.29547474967915
C         0.65126123028205    4.88234369245821    2.88943946664439
H        -0.21252173907548    4.37804568711695    2.45690590552623
H         0.79769329775631    4.53351364890119    3.90666385393868
H         0.43069420923383    5.94723753755221    2.92195823941810
C         2.60163671070579    3.29172603366170    2.29724798866717
H         2.89587108918513    3.29171360001804    3.34900452121768
H         3.52775410004207    3.29172316355001    1.71787327794635
Cl       -1.12090994065505    1.61020836534309   -0.71787788145392
C         1.89239495399065    1.94583495783477    2.03333419322132
N         1.51352183596764    1.76650494243745    0.62633879217949
H         0.82557181672587    1.00536730565201    0.57372320647581
C         2.61317536809155    1.40228153250584   -0.26273933378005
H         3.10586430598519    0.48233833135529    0.07186790344576
H         3.35970661263748    2.19348814439040   -0.30744063684858
H         2.21510983265845    1.24415953990568   -1.26439824374801
H         2.64117051766248    1.17782713159449    2.29543941520286
C         0.65123905149113    1.70117613063763    2.88940297250095
H        -0.21250236021610    2.20553683595763    2.45687902778534
H         0.79770726774430    2.04998767326429    3.90662515385401
H         0.43060608557649    0.63630022780234    2.92192771618237

