103
CSD_code = RUTNEZ | q = 0 | S = 0 | Stoichiometry = C54H43N5Zn | MND = 5
Zn        1.34704245021203    9.36708923724534    3.20881746433394
N         3.23949319301288    9.97638716646579    4.08027780091148
C         4.33499924800878   10.03336068397964    3.34006537135739
H         4.20926926660656    9.79261346036708    2.29404163439927
C         5.58779539274736   10.37869255819933    3.83901535172285
C         5.67251159189106   10.67945669722413    5.19271939341978
H         6.62155790761545   10.95334641605882    5.63174787299572
C         4.52750166926978   10.62244218346498    5.97056408557734
H         4.56278406071439   10.84968368025407    7.02464276440168
C         3.33186368417121   10.26514095571086    5.37181296722307
H         2.41445595261192   10.20406719341939    5.93799518597886
C         6.78208290701838   10.41001322232687    2.93986836244356
H         7.66614211169614   10.74294871843675    3.47752987773117
H         6.60697379362613   11.07974517190712    2.09994224288973
H         6.97302207090069    9.41666631987886    2.53618058856530
N         1.47238454012048   10.70430268324035    1.65284490777002
N         2.07907625448178    7.92113193112023    2.00136316947976
N         0.94455730611650    7.94751502855456    4.62310633032085
N         0.16735151697283   10.65976871240516    4.21500672837235
C         1.18240221362973   12.02690980819422    1.75091201745421
C         1.93652765181543   12.76728656370308    0.76117110638192
C         2.10207541267658   14.25088348968446    0.68704716873473
H         1.14107079489215   14.75861389494290    0.73860420660712
H         2.56322701724678   14.52035463353535   -0.26488169528080
C         2.99424138410709   14.74581954379956    1.82770808223516
H         3.10030400642201   15.82760743804443    1.78360827089324
H         3.98304516844071   14.29651414069275    1.76022628885528
H         2.56313924373924   14.47733971172129    2.78870163329075
C         2.61569624213563   11.84187132067344    0.01878768620534
C         3.65482560526588   12.13568024508203   -1.01534529917481
H         3.55566728738350   13.17134240180992   -1.34481001204934
H         3.53384840632387   11.50148890193854   -1.89133499117337
C         5.05777081261583   11.93368765354727   -0.43886957026500
H         5.81266492073839   12.17504523684245   -1.18426955192196
H         5.19364164143375   10.89957391633001   -0.13213516162192
H         5.20543078102194   12.57622661117682    0.42740512019242
C         2.26478301240835   10.54535271151875    0.55981195445904
C         2.60823986843009    9.29420486926695    0.03434935108467
C         3.11485810651868    9.18626620632411   -1.35219172214773
C         4.39746706172423    8.71916145104007   -1.62142982816091
H         5.05096253916443    8.45670834638167   -0.80097977446104
C         4.83761188949436    8.58853786600426   -2.92634168035250
H         5.83872951588152    8.23244379916692   -3.12260479702029
C         3.99646008099109    8.90582334551141   -3.97931903188733
H         4.33920367456954    8.79879582814052   -4.99792920295736
C         2.71134531690364    9.35474535378106   -3.72164013965957
H         2.04826290480888    9.59428425126572   -4.54021654580435
C         2.27341087691476    9.49660085815989   -2.41772067796597
H         1.27326240470000    9.84902331304825   -2.21127003082096
C         2.45301374746579    8.07797077713736    0.70611894028305
C         2.75661318437154    6.79456042515509    0.13034688463572
H         3.03670875402591    6.61868310303419   -0.89012756304484
C         2.59903200926079    5.87864811261759    1.11418082150661
H         2.72498881203808    4.81504154469955    1.05167743437112
C         2.18928584180250    6.59939196588513    2.28780678099762
C         1.96196163237910    6.01031548630835    3.53306176481388
C         2.28596063651817    4.57820143164069    3.68693478535838
C         3.58234064581401    4.11755424847977    3.47299377096795
H         4.35471476912723    4.82353020195872    3.20264048405791
C         3.88438051383968    2.77594603011958    3.61771147490468
H         4.89552920769550    2.43190663051869    3.45331126017268
C         2.89529874140011    1.87381933414567    3.97261763619843
H         3.13139867566806    0.82555755297669    4.08269991560635
C         1.60200304558790    2.32174297290062    4.18468274398734
H         0.82579988777127    1.62144009368139    4.45776831684747
C         1.29919436890921    3.66373550646956    4.04584880475590
H         0.28873148667020    4.01299882482518    4.20138489086147
C         1.42876617494299    6.68131486753052    4.63426376605985
C         1.27355634389473    6.10972951896391    5.94475043284495
H         1.60862920835171    5.13398152250874    6.23964022439690
C         0.65650164063983    7.04407943957986    6.70552706157551
H         0.39013176061310    6.98014699710834    7.74295566846564
C         0.42895400155267    8.18183731543289    5.85574907723533
C        -0.26894748512875    9.33134088922097    6.23047321021326
C        -0.87796455245738    9.36940963664833    7.57459761819081
C        -1.80568881238991    8.40808653345854    7.96660400454278
H        -2.09287346817447    7.63660008242938    7.26701589164587
C        -2.36829239063778    8.44873400213485    9.22903333038344
H        -3.09044287562463    7.69930474785912    9.51938223611423
C        -2.01063427317574    9.44711794661752   10.11989788050266
H        -2.44882112923432    9.47637046304725   11.10670120696059
C        -1.09053556071307   10.40943266146988    9.73874081827244
H        -0.80823410381724   11.19098467392408   10.42955551320160
C        -0.53032102027930   10.37320722613969    8.47516875886632
H         0.19092093973226   11.12211214555547    8.17928142924784
C        -0.44895969431573   10.44368218767299    5.40420908383915
C        -1.33008854287564   11.53837766385374    5.70365606302946
H        -1.96542570369089   11.60482140747388    6.56575117370859
C        -1.21817381760114   12.41766976002333    4.68102346141796
H        -1.74728007196555   13.34158735067310    4.55125062778845
C        -0.24851968942013   11.87181069256691    3.76785688138638
C         0.24507475482936   12.54914326346506    2.65052436975924
C        -0.34433459434695   13.88386080621331    2.40403932120652
C        -0.16630058344616   14.93914604762279    3.29318569507365
H         0.44676559570153   14.79546010276799    4.17163263314331
C        -0.76174990723257   16.16487589087416    3.05531624958559
H        -0.60904406853371   16.97955198110612    3.74850829001348
C        -1.55606171041749   16.34801489098228    1.93598889904717
H        -2.02390839502937   17.30431539250337    1.75378223282303
C        -1.75235961854113   15.29848154299201    1.05327412186711
H        -2.37788967978530   15.43394241057722    0.18287680154306
C        -1.14957760472908   14.07552987318955    1.28355371695413
H        -1.29706778721831   13.25492809168363    0.59648782824922

