112
CSD_code = RUTPEB | q = 0 | S = 0 | Stoichiometry = C57H49N5Zn | MND = 5
Zn        4.03976618042934    3.30520405730700    3.65031187091230
N         3.00406298737320    3.44766722956303    1.73334631271295
C         1.81047611828388    4.02165925322770    1.67530973834831
H         1.56242339351327    4.66772351085782    2.50479722017677
C         0.92356379495213    3.81431470923586    0.63221727955731
H        -0.03975946574236    4.30004709735161    0.62973004504322
C         1.29817345065108    2.96895580830925   -0.39988605361020
H         0.62998378104227    2.77679066726019   -1.22672647391528
C         2.54973942446276    2.37721547848516   -0.34613040036816
H         2.88690066882702    1.71606810409288   -1.12911116405607
C         3.36479579753328    2.64666290975276    0.74084528094954
H         4.34663579019931    2.20487461560750    0.82795382091646
N         3.16173008310753    1.48744394687176    3.86504441720435
N         2.57071791088662    4.12429689444561    4.78906938407125
N         5.01162002114211    5.06160357951075    3.65572124937268
N         5.73556423604651    2.39561675397735    3.03678357129975
C         3.58306916010313    0.36944354840484    3.22585434840251
C         2.44623307390054   -0.44566760173979    2.86764525518193
C         2.45824322598437   -1.64291629294792    1.97257260505091
H         1.50466725688962   -2.16830852529918    2.05049871182423
H         3.23995879010928   -2.34114181515811    2.26648346457204
C         2.67928590780865   -1.22746363705814    0.51685139649104
H         2.68814283792066   -2.10251746244801   -0.12956389348391
H         3.62933829587140   -0.70930153876724    0.41373033232147
H         1.88544261636662   -0.55911278390625    0.18899375606035
C         1.34019747068233    0.18916256885061    3.36519738049071
C        -0.07798278085522   -0.16843010012909    3.05320699790628
H        -0.70735689019369   -0.13882940427117    3.93950310684994
H        -0.11677045409450   -1.18562222693018    2.65974707173150
C        -0.64446250855375    0.78793216933212    2.00140052524146
H        -1.67751389769582    0.53323253209512    1.77441240222595
H        -0.06133901605192    0.73227093367515    1.08395358287888
H        -0.60902355604634    1.81241404924042    2.36347047968686
C         1.82048618818079    1.36812986320155    4.05634584650108
C         1.10495102538064    2.20027378570972    4.92912901712142
C        -0.22162855174706    1.73161616109898    5.38451002137578
C        -0.32679092578219    0.61656708998142    6.21529186504014
H         0.57447945349528    0.11443838620170    6.53639128877082
C        -1.56653513118849    0.16198280505882    6.62375083199570
H        -1.63695324931959   -0.69712357409003    7.27497847414761
C        -2.71851470976529    0.80060313387930    6.19123805574197
H        -3.68722734042381    0.43797705883697    6.50176842417155
C        -2.62348443119242    1.90233469852969    5.35954463242027
H        -3.52012082400238    2.39988919489751    5.01834869540171
C        -1.38193634008559    2.37379603263933    4.96755800648177
H        -1.30437394002168    3.23660027222084    4.32059071073833
C         1.57483732880812    3.43077614753634    5.40651046842037
C         1.04995827813603    4.21714552487836    6.50268371679483
C         0.09907258558481    3.80203632867795    7.58201450885386
H         0.54867320113339    4.05559528181406    8.54692235958911
H        -0.04820558452148    2.72386379072846    7.56510335452770
C        -1.25945246465562    4.49915663776439    7.48004154723322
H        -1.89424931769308    4.20147934996754    8.31215478695175
H        -1.75829467167944    4.22611091047673    6.55497583363531
H        -1.14526321341593    5.58021484752728    7.49917487834240
C         1.69564465835581    5.42343280765706    6.45920367290166
C         1.65506941137338    6.48724865377174    7.50941058780759
H         0.84035400069904    6.28274698277178    8.20412335327908
H         1.48003992469400    7.47047495548658    7.07350378355462
C         2.97175636898437    6.50571215674054    8.28969019529560
H         2.94413176441389    7.27382544850183    9.05974415776445
H         3.80685088922629    6.70909815349246    7.62512789252392
H         3.14156026649720    5.54142166958410    8.76450023126799
C         2.59918166049937    5.36620304452353    5.33502476166989
C         3.34268951153566    6.42770065482260    4.79711523111994
C         2.93599804107843    7.81638164184296    5.08858043605836
C         1.66023607708517    8.24459707861585    4.72619622905763
H         0.98049317836361    7.54149913617068    4.26588686996814
C         1.26549012380878    9.55029132365851    4.95064965580236
H         0.27472480031126    9.87011804749889    4.66118672518544
C         2.13697309335960   10.44749863936924    5.54617630148388
H         1.82728501321572   11.46664636664655    5.72508601762117
C         3.40665946167842   10.03192231085820    5.91051210530520
H         4.08916143124525   10.72754979530727    6.37705308631353
C         3.80654465208491    8.72848111805929    5.67831085067096
H         4.79718010143006    8.40662463815778    5.96571500523098
C         4.43850472186665    6.25594826463299    3.95011255072513
C         5.21757293309001    7.31946123220665    3.37332141453474
H         4.96750935398227    8.36241792170790    3.40232398286971
C         6.29633337060446    6.74187228612480    2.79328056213805
H         7.09499957369671    7.22142053813905    2.26063014533317
C         6.16904841147722    5.32533791171351    3.00125203966605
C         7.12598646817772    4.37007548464249    2.65204221650350
C         8.43087221001653    4.83660335264630    2.14921046905857
C         8.91683382104706    4.39358605539818    0.92129152042089
H         8.31885964372319    3.71325621940907    0.33185397291162
C        10.14185922863376    4.82883727847436    0.45078525684654
H        10.50477738614154    4.48061242146993   -0.50569264578261
C        10.90337124393142    5.70932897745150    1.20111436469795
H        11.86157696854654    6.04687546060017    0.83418240671548
C        10.43091731566862    6.15364177752882    2.42493814765308
H        11.02325104452844    6.83676670239410    3.01662216206948
C         9.20412334240967    5.72316480188670    2.89510900020235
H         8.84131999711777    6.05908169495260    3.85569500655708
C         6.92504599989992    2.99277142280849    2.77816915644839
C         7.94485780757885    1.99377098520506    2.61367771811305
H         8.98537661140281    2.19274330331652    2.44319105163085
C         7.33821923121186    0.79067418964161    2.74958011679025
H         7.79131824495358   -0.18102427335367    2.71285016422719
C         5.94187278489421    1.05347241598626    2.97670965892719
C         4.93760088540625    0.08434490565329    2.99201480295514
C         5.36750855565811   -1.31205760055212    2.78007972976934
C         6.01645276341145   -1.70991198224985    1.61470279378632
H         6.18290427857166   -0.98935525674488    0.82633152016249
C         6.43755878303592   -3.01787470984109    1.45681755670208
H         6.93311154325045   -3.31595574475689    0.54403826894497
C         6.22899508298677   -3.94340742979424    2.46534734351586
H         6.56220119941588   -4.96342040933723    2.34253378179322
C         5.59358501996390   -3.55507816853139    3.63374309515871
H         5.43388418484421   -4.27213738284112    4.42593819917907
C         5.16303890305289   -2.25072709014876    3.78970263293584
H         4.66487558579577   -1.94334293571100    4.69774173966350

