35
CSD_code = RUTXIN | q = 0 | S = 0 | Stoichiometry = C8H18Br2CdN4O2 | MND = 6
Cd       -0.51193116774231    2.85766999978976    2.49188290759526
Br       -0.59065381463706    2.44841872878024    4.98259335763657
Br       -1.52700320714296    1.53909337732817    0.62151039493853
N        -0.59315785125586    5.18100093966364    1.18094993099987
H        -1.28807753780283    5.30313177347374    0.44777007094944
C        -0.94976847635285    5.93367136136173    2.37321354630713
H        -0.84047321972563    7.03340795553194    2.20021610792510
N        -0.05331160789401    5.45542272572286    3.40597522829597
H        -0.32142018107475    5.79595067674064    4.32484815294305
C         1.33176302433685    5.78819959186876    3.12804921017062
H         1.95022760584156    5.39207687488647    3.93690931709761
H         1.48798576297300    6.87940939110374    3.06699528730699
N         1.78586772194653    3.71101313979683    1.86647624725549
H         2.42313904989152    3.40930603326933    2.60604554143169
C         2.25760576657084    3.14711947749200    0.58540208470565
H         3.23158718479912    3.61088293500111    0.31983021567896
N         1.34389381760498    3.43412453077027   -0.47916697572263
H         0.47638686281942    2.91616645937015   -0.36239883192134
C         1.09170987472971    4.85097809591498   -0.61688926594868
H         0.29477913629088    4.98902770027687   -1.34905987027423
H         2.00337244888369    5.31760374470531   -1.00886863564183
C         0.73080007424318    5.55868478306040    0.70362187294415
H         0.79022355396482    6.65246360889922    0.54497431717021
C         1.74860734341081    5.16729497602281    1.79182892336194
H         2.73860435567939    5.57013996054999    1.50883981583723
C        -2.40743470848687    5.64625834146632    2.77521880232356
H        -2.68189590436134    6.28797166681225    3.62138540859590
H        -3.06233592890373    5.88473949133861    1.93047878894880
C         2.46165877913331    1.63617559959904    0.75734764733396
H         1.54213119994457    1.17578218730827    1.13770774429039
H         2.69513271651137    1.19416058837643   -0.21660266755160
O        -2.62014191918543    4.29302912514682    3.07771611434109
H        -2.37893744744615    4.12211678356404    4.00466551616370
O         3.45237623508861    1.36484893025433    1.71819318510113
H         4.32319045734934    1.52405844475437    1.33764050940934

