53
CSD_code = RUVDIX | q = 0 | S = 0 | Stoichiometry = C20H21N5O6Zn | MND = 5
Zn        3.93782883187365    5.43300446031845    1.07299934064943
N         3.37107952464622    3.42653716516252    1.33684184267418
N         2.89489773767443    5.95233554211138   -0.66121656858594
N         4.95065697649117    4.17836979917829   -0.71834023857726
N         6.04054766746858    6.11914004333825    2.01096229185450
N         2.57594777526022    7.06011221122027    2.41055417310962
O         5.20830170849428    5.40880281970216    2.61500440748648
O         5.82568894144695    6.33682768270729    0.81054956344027
O         7.02352302379508    6.52156288513831    2.55926066084993
O         2.26839967242029    5.85194717878113    2.32146556183945
O         1.95416195004803    7.80788982171576    3.11059886801616
O         3.52443656707532    7.44399171612523    1.71225049809622
C         2.91663400037779    3.01324849483149    2.51115898016794
H         2.88255809973796    3.76061621845560    3.28729692671234
C         2.50239775674546    1.71018445206275    2.72825139145714
H         2.14277874231557    1.40987208949839    3.69875186120512
C         2.55775179434657    0.81098512625021    1.67488144609111
H         2.23627241638850   -0.21198738773974    1.80192384357157
C         3.04194642204792    1.24746792113262    0.45347105500329
H         3.10796270377995    0.57698924946505   -0.39033101189881
C         3.45113254347923    2.56920625735383    0.32651847334467
C         3.98933110644941    3.11245807197679   -0.96832811774183
H         4.41389521258513    2.30586930042421   -1.57932381515758
H         3.14128753480210    3.52885298407668   -1.52103938548089
C         4.91480242364542    5.19291258170569   -1.76071289561415
H         5.10643573702734    4.77104186020223   -2.75932421912757
H         5.69655944442562    5.92321233748819   -1.53334287038533
C         3.61762205887570    5.94370094925685   -1.77596165611436
C         3.20156603236476    6.61552416096691   -2.92153021937941
H         3.81863176280469    6.59695761108339   -3.80666930724725
C         2.00507877188920    7.30767993335889   -2.90108670332625
H         1.66880722874588    7.84965497699956   -3.77201872203949
C         1.24125825337280    7.27906378624051   -1.74335387677697
H         0.29247153338400    7.78688207174148   -1.68556597943300
C         1.72858021658037    6.58866215568594   -0.64989239812348
H         1.15932753181612    6.52580235293159    0.26540089193762
C         6.33228415303293    3.68476630061026   -0.50831591928330
H         6.92479321181908    4.58503000217327   -0.31683687201455
C         6.44257647415150    2.80027792103662    0.72975499450539
H         6.09460487447622    3.33359725262064    1.60995659286303
H         7.48732603505576    2.53618120097748    0.87840459179888
H         5.86627551023416    1.88384929930180    0.64109621868186
C         6.90879692640257    3.01796545060625   -1.74395633575751
C         6.75055490733628    1.66264935494404   -2.01446337538111
H         6.24625020904021    1.01712673883524   -1.31061836535902
C         7.26451525851258    1.10542320475165   -3.17367047617343
H         7.13042471215100    0.05043934774475   -3.36341407171295
C         7.95278472061744    1.89002218211729   -4.08135438314374
H         8.35366215396087    1.45344190291385   -4.98369196675024
C         8.13816584008098    3.23564191367680   -3.81410668729680
H         8.69105151463710    3.85434119487194   -4.50522958613699
C         7.62165384040816    3.79013701489181   -2.65718280227829
H         7.78851995339691    4.83753083697361   -2.45047564905573

