49
CSD_code = RUVHIZ | q = 1 | S = 0 | Stoichiometry = C11H27ClN5NiO4(1+) | MND = 6
Ni        0.35910052154006    5.76285245198168    6.41782594042472
N         2.29576444182531    4.34883807842724    6.40253325594427
H         2.82340037747730    4.37095560306060    7.26911981544039
N        -0.39526846607539    4.02176751431036    5.62964111965625
H        -0.82080768892960    4.36009553355780    4.76758446765851
N        -0.68980897416586    5.31811369877153    8.01743593370391
H        -1.51444653807543    5.89474684520477    7.75146850341966
N         0.97553753280597    7.45337694606782    7.21932365606393
H         0.15508867115958    8.02323120419509    6.93063007813112
N         1.32838337026747    6.39240762786351    4.73661161548355
H         0.55078038490561    6.42508358197899    4.07712375956102
C         1.79362802098699    2.98494219972916    6.22297645098607
H         1.52373835149209    2.59634426687322    7.20575639061339
H         2.55866975626267    2.32156751384333    5.79710472418681
C         0.55940609796968    2.95265353258130    5.30660403444443
H         0.88053691032842    3.06121908434295    4.27078253692442
H         0.08486865505557    1.96995088913972    5.40054739410014
C        -1.50041171009976    3.61844901207686    6.51770808097285
H        -1.75277985783032    2.56093092426114    6.38714335668019
H        -2.37527491566906    4.22208691692815    6.26465813821960
C        -1.11628672306951    3.91391767529986    7.96080556120901
H        -1.96952705831086    3.74076915882895    8.62804683524353
H        -0.29038322134540    3.27569148610863    8.28639828789630
C        -0.30994985012946    5.72352791060298    9.37009402219984
H         0.58834021261216    5.17260758372208    9.66971792609039
H        -1.11769094731900    5.46252616612308   10.06480134831353
C        -0.06313610967500    7.22562251628947    9.45279224548019
H         0.07968554672679    7.50493989194158   10.49615235435650
H        -0.94102096153754    7.75534564779590    9.07689777983004
C         1.16764169615052    7.64430128873655    8.65627954274939
H         1.37349845643946    8.70321488837703    8.85568443799300
H         2.03858533724890    7.06237288415150    8.97716406165495
C         2.11539746063902    7.95775678383970    6.44166749720571
H         3.00914929039350    7.38759869965882    6.70865217811274
H         2.29918625796161    9.01560613510699    6.66665146807752
C         1.76480429352231    7.78240484724134    4.96997303468658
H         0.93004528816751    8.45038765783419    4.74305053375426
H         2.61340663727679    8.04471632949719    4.33075401482260
C         2.36474260417376    5.50191106317072    4.20291376180908
H         3.06025398605747    6.05558100052008    3.56192712440370
H         1.88791311667391    4.73983953101455    3.58730238086319
C         3.16950001154074    4.82789279450441    5.32747911346621
H         3.86530466322317    5.55423735512476    5.74977550202806
H         3.76149388321804    4.01177483895525    4.89305058188389
Cl       -2.22044124182618    7.58635087252748    5.70996302973647
O        -1.49080371535433    6.53411602839798    5.01946381899217
O        -3.27573403151932    8.03690177960283    4.93368592691334
O        -1.26205897048923    8.61149861103747    5.99565247451873
O        -2.64582085268040    7.02387514879304    6.95662390309445

