50
CSD_code = RUVKOK | q = 0 | S = 0 | Stoichiometry = C25H18N4O2Pt | MND = 4
C         0.88881734371848   10.19840956441562    6.36570973899582
C         1.72992143927311   10.97634124609993    7.19546593528837
H         1.60746397117997   12.04796746184380    7.14390451927497
C         2.67729500180576   10.41114095653806    8.00731862358248
H         3.30690191953746   11.04085412721611    8.61910864308750
C         2.85110227771071    9.02860454711666    8.02363304528862
H         3.62813846463996    8.58196748806810    8.62417914373863
C         2.02812970625346    8.23674459758293    7.26155218826218
H         2.18325744471774    7.16850681802654    7.25712269662171
C         1.01214400707163    8.78188671343000    6.46301088210663
C         0.15036678524398    7.91571509733432    5.69860511074266
C        -1.06734048841819    7.11175977963784    4.09648197794877
C        -1.84106837649013    7.01200708212988    2.88307609103537
C        -2.27354658668223    5.73740513222728    2.49795720575223
H        -2.01037589217393    4.90983302917671    3.13853387147281
C        -3.00187284226130    5.54072235396985    1.35001196143862
H        -3.32522103427873    4.55017123155134    1.06919476144581
C        -3.31658342115285    6.63736617885454    0.55183655187241
H        -3.88724936370151    6.49847485294164   -0.35552688981788
C        -2.90931319786826    7.89731855232193    0.91057234980726
H        -3.15367487298668    8.75456882258108    0.30053869294620
C        -2.16431876578232    8.13883797277781    2.08596864727070
C         0.21403072326359    5.75062751327195    6.98105645225516
C         0.01067255312929    6.19338119090747    8.28393311214769
H        -0.31855921556410    7.20531959882526    8.46411784464931
C         0.24181041369935    5.32880471159520    9.33683766753929
H         0.08938934382245    5.67097297728564   10.34920355392382
C         0.65485391556257    4.02745566950164    9.09753127643749
H         0.83259937112515    3.35775946657898    9.92526251970997
C         0.82870248983701    3.58430518224596    7.79715316957662
H         1.13947022475942    2.56802037620422    7.60779370986777
C         0.60553161881848    4.44097743158988    6.73462739219075
H         0.72428273038624    4.11253462648141    5.71422769751635
C        -1.65699891206801   12.82461540198073    4.24192258314624
H        -1.72425395986627   12.52045655291389    5.27834513363500
C        -1.93251245024278   14.12414736610239    3.85792929840864
H        -2.23722496971174   14.84944488751547    4.59567366826911
C        -1.81140833147617   14.47337643647245    2.52142152444782
H        -2.01879722285291   15.47955487442469    2.19077100852609
C        -1.41679733000640   13.49529419364733    1.62122937702372
H        -1.30858541403245   13.71797529640368    0.57157243246390
C        -1.15928502642719   12.21799841592831    2.08424760306591
H        -0.86666101719382   11.42442859930728    1.40905060386474
N        -0.50662596895723    8.26017424545624    4.58317640820336
N        -0.05516027525991    6.58915822954479    5.88600204327533
N        -0.79515411166056    6.08819124582641    4.87597265133237
N        -1.27579477344391   11.88544153800379    3.37250784483402
O         0.05527311191128   10.83819246255167    5.60396738077890
O        -1.84338837165510    9.38073204280898    2.33103375200782
Pt       -0.87848266525025   10.06265586078746    3.97027654274178

