67
CSD_code = RUVLAX | q = 0 | S = 0 | Stoichiometry = C32H27N5O2Pt | MND = 4
C        -1.95701536306226    8.35703896935739   10.15781151785947
C        -0.62439462110045    8.57846733665895   10.58210405065821
H        -0.19194374806779    9.53757495657276   10.33860636217180
C         0.10198561383658    7.62104045432749   11.23875927863608
H         1.12193281720385    7.82567564782940   11.53249425170875
C        -0.45937555230611    6.37385546803934   11.50541203856055
H         0.12434650183336    5.60010207119123   11.98026179043950
C        -1.76619666073798    6.13661755112633   11.15490333082654
H        -2.19593958578002    5.16410977449567   11.34635443023402
C        -2.54924355183651    7.11432810340163   10.52862725614602
C        -3.92398430340036    6.83042466979903   10.19863529464745
C        -5.78667164083368    6.71315427307396    9.11448156048033
C        -6.80336103975824    6.94900294681316    8.11748465374286
C        -7.94463205297378    6.14048897193894    8.16518364365120
H        -7.99808702737185    5.40684369330130    8.95514874373702
C        -8.95853734562460    6.26526079670994    7.24662880631322
H        -9.82994819537639    5.63069885821959    7.30157182622024
C        -8.84439341363532    7.22196402167629    6.24157211847568
H        -9.63161996761070    7.33218194033957    5.50871328884185
C        -7.73870938858640    8.03068116668168    6.17603146402661
H        -7.64408322080237    8.77944052507178    5.40279708346866
C        -6.67797835480027    7.93874904242448    7.10732911259081
C        -4.60998034946988    5.16793508456717   11.95333338234008
C        -4.06495766307485    5.76216656641672   13.08465414736921
H        -3.70329835373288    6.77855969187921   13.03594660279096
C        -3.97270009727298    5.05070659023702   14.27162987925863
C        -4.45852720675858    3.74883151839722   14.31480982741347
H        -4.39246815482184    3.18679092517706   15.23489428732421
C        -5.03246474082573    3.17078306199213   13.19573312688425
H        -5.41577078762092    2.16274701990259   13.24688313593650
C        -5.11323616102369    3.87426238208961   12.00870211701335
H        -5.56121659388057    3.44497213488920   11.12695166829958
C        -3.38115506197574    5.69824000374024   15.48590306916850
H        -3.07421922698172    4.95191730395173   16.21416501957724
H        -4.11706911708507    6.35078097451461   15.95618126389095
H        -2.52024156903153    6.30554576713861   15.21474887003977
C        -3.60355473492000   10.68150362673141    7.25390585078299
C        -3.17136516276215   12.80155936729657    6.73812399214896
H        -3.14593718170898   13.86353812228544    6.87174934666049
C        -2.73470465878546   12.03121923940606    5.71235057590881
H        -2.26159340239355   12.30384317797025    4.79105611010485
C        -4.27447585893758   12.35159281802351    8.92680261845497
H        -4.52565152143445   11.44384776715075    9.47999407329009
H        -5.17785435367988   12.94226014317397    8.76448727469096
H        -3.55842440075159   12.93866699016470    9.50304017741016
C        -2.71849697793064    9.56500122265235    5.24607720128897
H        -2.07716639039839    9.87225333261912    4.41493647912362
H        -3.65886192827112    9.16767639662275    4.85072495662221
C        -2.03677592470136    8.51119018838682    6.08745955642398
C        -0.75943755455835    8.73541432426883    6.58564781830798
H        -0.25032718477987    9.66114760452773    6.35631560489767
C        -0.14003960605820    7.78564655529510    7.37890917332485
H         0.84919522708486    7.97161596266215    7.76895107683573
C        -0.79029952806817    6.60228180692313    7.68167209319272
H        -0.30908727952898    5.86830782544874    8.31051420602383
C        -2.06162623843621    6.36702247709051    7.18603286368306
H        -2.56682615193478    5.43932295919218    7.41296061951026
C        -2.69135636396255    7.31906946612718    6.39710695770572
H        -3.66320046445141    7.11179192614149    5.96906671903229
N        -4.59622214167448    7.37190015051124    9.18333528735274
N        -4.72612050805470    5.88669121174562   10.75389837762558
N        -5.88089156976986    5.80142835309005   10.06055901651309
N        -3.69962873186278   11.95330590375011    7.67268893071722
N        -3.00869538236251   10.73527591222442    6.04690501762189
O        -2.53787530319212    9.31235635312810    9.50628925006002
O        -5.68601047226085    8.76669532783308    6.93464521398592
Pt       -4.10893306510439    9.00643322362365    8.21264525994589

