63
CSD_code = RUVVEK | q = 0 | S = 0 | Stoichiometry = C22H38NPRu | MND = 9
Ru        3.41981665175598    9.10863944956419    0.04530594313018
H         4.56829849873893    9.65816589963540   -0.80199988816572
H         3.65970288938663    8.14523568625787   -1.12460593904862
H         4.37278390182841    9.84725796626038    0.97991997842521
P         4.36082433739881    7.28309220371170    1.15525512032503
N         7.89183540497302    7.06546332728081    1.91683356003578
C         2.17181461244693   10.90068209108071    0.21491961042701
C         1.80069271913852    9.98919915168877    1.26663782031353
C         1.24775267217561    8.81911619985516    0.65901880395623
C         1.30351059800831    8.98866094456199   -0.75253496684873
C         1.87540301419855   10.27357566379337   -1.03364513023454
C         2.49662952942551   12.35358181562042    0.40105839828956
H         1.57139193927679   12.93650513769922    0.40048375656485
H         3.13302229354210   12.71964253121839   -0.40238400841831
H         3.00945912786761   12.52618154764292    1.34499769193148
C         1.61947992479505   10.39650805485081    2.70050389318846
H         0.70081141278703   10.98240896444449    2.79490126637111
H         2.44695692800977   11.01234853006160    3.04932929780978
H         1.53494397755201    9.53483696594486    3.35985595499704
C         0.42666339256133    7.77714694104449    1.36129381725703
H         0.78167284570559    7.59248926338795    2.37367912105799
H         0.42662750124503    6.83248809350262    0.81998853318132
H        -0.60806363965188    8.12567467776110    1.42762357129521
C         0.59072690973677    8.14320610242830   -1.76641852173558
H         0.45507499728019    7.12084368858676   -1.41836926174672
H         1.13042297895582    8.11483734669717   -2.71146168028740
H        -0.39806266517365    8.57024638341537   -1.95405898094160
C         1.85418157753971   10.94804721365247   -2.37362630612795
H         0.86918680190149   11.39104760147527   -2.54473212489798
H         2.05347180745738   10.23915530063091   -3.17512950738306
H         2.60000076697857   11.73848387410515   -2.42542295916081
C         6.00803081827379    6.71623955252956    0.48123782859106
H         6.18470889513630    5.69412989288683    0.81799388891188
H         5.90082429903965    6.76164942608157   -0.60575509044081
C         7.15540172023514    7.55718165797786    0.92455208790281
C         7.44227607878394    8.77912093658710    0.31802894878637
H         6.80710219254948    9.13481453496700   -0.47916333833105
C         8.52183702090919    9.50982671474110    0.77883890170218
H         8.76721937340346   10.46385263445481    0.33504694896061
C         9.28523175934278    8.99823599615572    1.81949488374485
H        10.13685123960495    9.53619477089759    2.20645964173663
C         8.92374674325136    7.77086912456905    2.34849229380968
H         9.48519670180101    7.32198025595476    3.15847221034669
C         3.43493225097660    5.64636441000466    1.04716867928654
H         2.50067319960134    5.84128873238580    1.58743117679980
C         4.12109122578529    4.43534270899678    1.68206446233478
H         3.37939144090588    3.65641533846630    1.85820683730543
H         4.59760986953618    4.66833560308496    2.62919502421334
H         4.87177745082645    4.02262385316304    1.01258342025202
C         3.08507562361748    5.32173336419856   -0.40122391728964
H         3.98462713811223    5.09452691968877   -0.96973631084596
H         2.59049574567525    6.16346627687704   -0.87918595502244
H         2.42426278466626    4.45612823311888   -0.44453183719310
C         4.77067742816362    7.33932880778275    2.98962635015086
H         5.55915333073513    6.59396039308894    3.14805962925932
C         3.56331927036917    7.03425657645924    3.87146534784026
H         3.82257712686856    7.19867710891599    4.91692163136927
H         3.21548581418692    6.01018591114808    3.76930321917614
H         2.74533887039818    7.70670021236182    3.62114961461921
C         5.32760605956821    8.70531126255516    3.37478696058158
H         4.54430754998730    9.45858707805355    3.32758633371405
H         6.12662154383302    9.01029346845386    2.70483914528728
H         5.71921572602584    8.67410962555259    4.39097411888472

