69
CSD_code = RUVVAG | q = 0 | S = 0 | Stoichiometry = C26H40NPRu | MND = 9
Ru        4.23755802666282    7.31023251098744   10.28057477604000
H         5.55376672960682    6.55769372940773   10.47627659424384
H         4.86842564125385    7.84012551425232   11.57523394167086
H         3.07247955158043    7.75996146778695   11.16579129678948
P         3.43830982457937    5.26596836331403   11.08378463746609
N         1.15160156356601    5.39874690245904   13.83709392277406
C         5.32012385127832    8.56050266621875    8.84223885001476
C         4.11376136537074    9.22747239493092    9.20985899231045
C         3.01241476231142    8.42569839844006    8.74884581656418
C         3.53809878147150    7.27271528129921    8.09796545162293
C         4.95944413815119    7.34497073476057    8.15836613784207
C         6.69319798843622    9.16497554308084    8.85463532943178
H         6.84693310218513    9.74016717702648    7.93734994794414
H         7.46210264394368    8.39692990990829    8.90935539056742
H         6.81908598857985    9.83339876986644    9.70407453655267
C         4.00183080169000   10.64747163926603    9.68052069666238
H         4.86052197143967   10.92740840001165   10.28735880307464
H         3.10180306032242   10.79505327129588   10.27426120685888
H         3.95707678747626   11.31654515489968    8.81658285829998
C         1.60406153668890    8.93379864370606    8.63731484439084
H         1.56580017073489    9.69446375099534    7.85278890485120
H         1.26608085881602    9.39252725973682    9.56549891522257
H         0.90681833466769    8.14200190064251    8.37125624536877
C         2.74967802653310    6.33229457109157    7.23322337214897
H         1.75107522478399    6.16126068651502    7.63145770884894
H         3.24720912291138    5.36924366683189    7.13347574786607
H         2.64618489283149    6.76395752714268    6.23371341760899
C         5.91532612986725    6.55065322203328    7.31632110848678
H         5.48117589627753    5.60728391022044    6.99153518566386
H         6.84249709411447    6.34046304003171    7.84768227660762
H         6.16538793328183    7.13118850553376    6.42404123586628
C         3.35505503046000    5.12957707102575   12.94603450359554
H         3.18910717931130    4.07971438139784   13.19686577075247
H         4.34278569058578    5.46305673642239   13.27703741738115
C         2.30338709898062    5.97020622661475   13.58390471153668
C         2.57512890506988    7.31667295318002   13.92211595195446
H         3.55042019142482    7.72315288407084   13.70424341942283
C         1.59328811526318    8.06595988936196   14.50355836849404
H         1.76209766539053    9.10029327781762   14.77058242305742
C         0.33509869746773    7.48153947487976   14.76874657603943
C        -0.73700344034304    8.17256892498807   15.36362812687978
H        -0.60157966594048    9.21118841141342   15.63205807083958
C        -1.92637882415943    7.53804518923914   15.59603348124963
H        -2.74767197445675    8.07120191887077   16.05249985990235
C        -2.09260893834891    6.18933104892896   15.24497946750167
H        -3.04047438099897    5.70762642205416   15.43708466839426
C        -1.07067606543714    5.48883602669918   14.66642968200767
H        -1.18138636558166    4.45163365233036   14.38968425975974
C         0.16634587508523    6.11645480172044   14.41444146417716
C         4.46160730719455    3.71790300158372   10.79510036057294
H         3.86238819649907    2.85863822953938   11.11351409681127
C         5.75495730113086    3.74548690639916   11.60334395773720
H         6.44072613026585    2.98500404724367   11.23255352933617
H         5.57413289911508    3.55034453352388   12.65678222630793
H         6.23449749941039    4.71940439239813   11.50588375177746
C         4.77346025888215    3.58803804058485    9.31067813825385
H         5.36277696224513    4.44550426753196    8.99469641561735
H         3.86190757049024    3.54408963421408    8.71685491015261
H         5.34801721114396    2.68321436173422    9.11552627677412
C         1.75413937573798    4.65110665183233   10.52484068514095
H         1.92119657203604    4.35508706762061    9.47884423863226
C         0.73943202644610    5.78955337067510   10.54313330852391
H        -0.12837235275538    5.53929364004694    9.93294239586407
H         1.18483305001958    6.70678204471630   10.16636142468695
H         0.39889487100481    5.97524054850751   11.55785710033465
C         1.19503640336548    3.45953714202454   11.29666153095248
H         1.01192857634374    3.74088017629696   12.33082798185744
H         1.85429477350267    2.59592796636535   11.26670455680921
H         0.24637877331465    3.16593017255176   10.84798674155056

