62
CSD_code = RUVYOY | q = 0 | S = 0 | Stoichiometry = C28H24Cl3N3NiO3 | MND = 4
Ni        0.91196993201076    1.72114295885025    3.99647702359057
Cl        6.50498180691198   -2.62512366958673    3.37412299542205
Cl        2.89256755047166   -3.16890022739179    1.47275775471271
Cl        1.28314486595887   -2.56968709394357    4.08121687705768
N         1.81002491408300    1.05038059455172    5.45242940940636
N         2.39999640423176    1.61870176903953    2.88247131603739
N        -0.08094797524396    2.55144393819075    2.49233976843494
O        -0.57840034434308    1.79084381313897    5.10811940641883
O        -1.22021345635357    1.51749601013989    7.21497431113734
O         3.17290418134514    2.62443135440593    0.94787687577482
C        -0.37340997901680    1.56942089943351    6.35325115632637
C         1.13747550348684    1.40472547298333    6.69445296219718
H         1.27992304296073    0.64825923934036    7.47296174256235
C         1.65209956871944    2.75945097300043    7.18745433100246
H         2.68485828166273    2.67879864343646    7.52218750576048
H         1.03241158615112    3.10124169785749    8.01237752578273
H         1.59935928635240    3.48788688895774    6.37525859052289
C         2.86856418407805    0.31592196762727    5.45477492587337
C         3.60754480794952    0.00053701889102    4.24783636574028
C         4.57743168810021   -1.00897601349223    4.33151182912797
H         4.71714461416637   -1.53408465467224    5.26303964104602
C         5.33532240397206   -1.35949672225649    3.24094306265665
C         5.15505073736472   -0.69876853573062    2.03109329466915
H         5.74718798617510   -0.97086570732451    1.17164944588329
C         4.21264363770262    0.29521736757047    1.93200931774894
H         4.08796432774679    0.79694931647779    0.98828289387168
C         3.39836066498865    0.67685774123392    3.01439593786198
C         2.31709938569496    2.42398990148984    1.79226393223872
C         0.98958083199557    3.18115777518889    1.69038516117528
H         0.71097952766854    3.20448944753447    0.62834158684875
C         1.12948501700663    4.62382865553515    2.22880480499784
H         2.14209437492180    4.82054644173068    2.57783207108499
H         0.90030259687520    5.34313181502865    1.44323271994303
C         0.09736314513888    4.69618746666368    3.35553684236801
H         0.54023833845988    4.35287988524418    4.29918361185362
H        -0.31291369272614    5.69285924693234    3.49693738318069
C        -0.93541653302493    3.67458144356257    2.90777507116377
H        -1.50651437168376    4.04871807673977    2.04791645437946
H        -1.61450597271209    3.36634772082634    3.70196745308453
C        -0.83519355240863    1.53016132378242    1.74517511667542
H        -1.73647592396858    1.30500498905730    2.32165118426963
H        -1.12442209567179    1.91980216635699    0.75970916236509
C         0.00590723504673    0.28850295126494    1.60660594046840
C         0.70367530714470   -0.00367762206760    0.44354469141076
H         0.58088413821046    0.61306922992123   -0.43356460913197
C         1.57487120129740   -1.07830291092610    0.39679967207599
H         2.12277601128133   -1.29933847058872   -0.50484488496762
C         1.77047662088743   -1.86750520486311    1.51901738696803
C         1.05886837147152   -1.59424178316733    2.68576932476043
C         0.17557923903596   -0.52515245439320    2.72935828934107
H        -0.42458527297927   -0.36605861824367    3.62258302976816
C         3.40850418069716   -0.22407388559628    6.73249569094273
C         2.84287169694219   -1.35335381309230    7.31610078434413
H         2.01425083141051   -1.84757076183498    6.83096010535485
C         3.35191229274160   -1.84367050950169    8.50534225324444
H         2.91270945662132   -2.72308217907261    8.95141795213893
C         4.41944000144970   -1.21014022107575    9.11992682967188
H         4.81120497646987   -1.59238157311745   10.05031491753235
C         4.98505839595926   -0.08765111733413    8.53921492549188
H         5.81808530886016    0.40756998038562    9.01495242590281
C         4.48488357892602    0.40499637050399    7.34655996816910
H         4.92896513132790    1.27477119639693    6.88466648425564

