45
CSD_code = RUWBAO | q = 0 | S = 0 | Stoichiometry = C19H19O5PW | MND = 6
C         1.77433596740580   20.94644909937715    1.01441019510901
C         0.82327975964631   18.53394125355891    2.00745925840953
C         1.88812889202717   19.24382652700969    4.62969991220409
C         0.11766366989648   20.87961320129529    3.27152172589495
C         2.75088612946926   21.66658901803026    3.58012335000772
C         5.08306668609718   17.84871854643002    3.01912309332065
H         6.15857561627944   17.91944940607073    2.91219105441256
H         4.78173634809837   17.54640633677680    4.01280530070804
C         4.32969719425815   17.26119731670697    1.83681942022520
H         4.93587436297722   17.01490976259217    0.97101212046560
C         3.16587816941296   16.37061926380828    2.00588433968638
C         2.72722245178674   15.61451757915814    0.92044404037977
H         3.26206177910078   15.67298424337987   -0.01749752224376
C         1.61585733764802   14.80105338692168    1.02758657559895
H         1.28712652807934   14.22742146690931    0.17368626029719
C         0.92176283652747   14.72407824869967    2.22384498319503
H         0.05090919971615   14.09173799559151    2.30646522447805
C         1.35037704438449   15.46497071722660    3.31083635463764
H         0.81582837323544   15.41252114184319    4.24786540084802
C         2.45752797344855   16.28733231514392    3.20181120572189
H         2.77885350898478   16.85191486689286    4.06416592795105
C         5.20910749269498   20.04808446415588    1.07089345793877
H         4.54610071242579   20.65574417465490    0.43802828040430
C         6.14640348734423   19.25755792635031    0.16327364872124
H         6.80334308261925   18.61962539396891    0.75940018665570
H         5.56817503816522   18.62481484991018   -0.51432121402026
C         7.00448345718154   20.21939183165563   -0.65861375666212
H         7.68460048785969   19.64857435398855   -1.29425014585092
H         6.35812658292156   20.81313991768902   -1.30878802049128
C         7.79921029051897   21.15157245060313    0.25053056093944
H         8.39750181978617   21.83578937545122   -0.35356329651015
H         8.48417350410530   20.56344475946944    0.86603508850515
C         6.85705715228661   21.94189090828822    1.15340405001964
H         6.20922005746864   22.57244263889233    0.54043282784133
H         7.43026920847464   22.59402657971266    1.81489262074190
C         6.00008025432912   20.99073088242239    1.98256459736953
H         5.30886427478596   21.55958041018592    2.61100993056913
H         6.64426083373448   20.40346245352473    2.64256287604456
O         1.68465632033547   21.48624755923723    0.01141715410702
O         0.11962702623850   17.78415350889652    1.51410513734471
O         1.86017323050457   18.85771575715323    5.70435511716112
O        -0.88431983262503   21.36076376270164    3.53827051545628
O         3.16595968006261   22.62566891549971    4.04265841296784
P         4.04673202092007   19.06463361964618    2.14430826394954
W         1.85544398939902   20.05929181248887    2.80343548548006

