51
CSD_code = RUWCAO | q = 0 | S = 0 | Stoichiometry = C22H18N4NiO6 | MND = 6
Ni        8.66515126516917    0.81516787949779    3.61236143520477
N        10.33936236220778    1.33892750134523    2.51802107565177
N         7.06552794480544    0.33876559323324    4.76865733536868
N         9.67102623470351   -1.29727271168859    4.03467414154561
N         7.73907287196443    2.94859884641533    3.11802904874491
O         9.63402562303502    1.55908861013713    5.01538628028171
O        11.52145084796089    2.55525403849889    5.61164125505338
O         9.72388688707259    0.60757792896278    0.47184813175893
H        10.00340070481193    0.54044554129530   -0.45016464121096
O         7.68433874275480    0.08129454934604    2.26990180296364
O         5.76987840295079   -0.89428677295808    1.73350165077469
O         7.73837527526424    1.08471167532199    6.83765700532472
H         8.53346496647404    1.32962388426868    6.29383142411448
C        11.22871523121792    1.92383603040513    3.33052616657147
C        12.45535127059237    2.39120829133764    2.89510630443390
H        13.11790573712867    2.85073113613794    3.61028260452046
C        12.77934302269004    2.24759895771983    1.55442406942083
H        13.72609167413080    2.59839006347084    1.17173187488219
C        11.86715785637562    1.64530660005872    0.71178243638191
H        12.08071132471943    1.51393533075099   -0.33954102479014
C        10.64685218090495    1.19888894542875    1.23280716312393
C        10.79504125401939    2.04088453736257    4.78267570019645
C         6.13017171711425   -0.24730237796250    4.00198562025474
C         4.92226468251868   -0.68507314431581    4.50330555879704
H         4.21803256000475   -1.14641668852304    3.83044059403781
C         4.66596921457355   -0.51113935675674    5.85929477725868
H         3.73192609548074   -0.84060919086223    6.28974902413382
C         5.62040897414001    0.08799915587476    6.64880549195170
H         5.47797721970410    0.24908105167667    7.70495857425448
C         6.82896726246686    0.50997487191299    6.06976376919114
C         6.52656751416394   -0.38128431743070    2.54027943425299
C         9.71075659516144   -2.17982159444665    3.04139407257828
H         9.25509250088592   -1.86347391786659    2.11220442404016
C        10.28719313322844   -3.43345289332765    3.17231393854787
H        10.29448054778315   -4.11799968682127    2.33832632853783
C        10.84648773662185   -3.78601544721752    4.38996161463064
H        11.30375152542226   -4.75515674206573    4.52878996346862
C        10.80577937781158   -2.86742687712474    5.42623965804608
H        11.22841319632303   -3.09751210633983    6.39185276251060
C        10.20810783636247   -1.63743716383480    5.20081987715017
H        10.16386803230717   -0.89340699209738    5.98545109981365
C         7.27532499393780    3.16132075551248    1.89054625573234
H         7.35087627839839    2.32553732968702    1.20730127162454
C         6.71861204623090    4.36764762033498    1.49578952180370
H         6.35334948718525    4.49375238366560    0.48838615921756
C         6.63946928458175    5.39864258283890    2.41804219919825
H         6.21048658950849    6.35238410843211    2.14610900083132
C         7.12222449299538    5.17857868813929    3.69782927768069
H         7.08176365117220    5.95159668496085    4.44933377309154
C         7.66244037920960    3.93858260830359    4.00017752990589
H         8.05510539376028    3.73365419930662    4.98760718713917

