89
CSD_code = RUWDAQ | q = 0 | S = 0 | Stoichiometry = C38H43AgClN4PS | MND = 2
S         8.77978845863639    4.59870615430058   20.43211095581382
C         7.90660119536407    5.75314466290688   19.51127463915551
P         7.68587100882813    7.16649944766405   20.47743985047980
Ag        9.55185751222616    5.95494025906862   18.21927161660534
Cl       11.12330839120976    6.15550076580170   16.57878687648931
N         9.96873648156303    4.78050791381323   21.39567819551612
C         9.07320034418387    3.24411864134223   19.24770247749840
C         8.23412089641926    3.03079326434838   18.16405896206048
H         7.36200281179056    3.65414645687664   18.02273826035169
C         8.51962766596526    2.00256060348186   17.28256878434009
H         7.87445648651780    1.83039662843286   16.43415789239089
C         9.63242072445849    1.19984610192308   17.48389104954993
H         9.85720086014966    0.40800942022878   16.78508286397400
C        10.45724652191529    1.41158954701871   18.57554599662233
H        11.32353547366444    0.78650054178065   18.73272679943725
C        10.17351298184012    2.43346879876971   19.46510474478411
H        10.79769057325931    2.62188039224208   20.32615923261286
C         7.65735427508554    3.66993195497541   21.51357247605661
C         8.14430737099005    2.98186737195896   22.60789382404444
H         9.19699882343186    3.04035017243083   22.83078246303502
C         7.26660621416879    2.26323572188067   23.40013583407080
H         7.63784133982156    1.72269130720580   24.25910702736512
C         5.91557079744443    2.23647859782662   23.09291611689796
H         5.23194025221814    1.67676455676071   23.71535418820831
C         5.43892792222602    2.92379376490302   21.98889569752243
H         4.38631951539127    2.90343146018605   21.74784164635243
C         6.31388231663307    3.63851366652699   21.19086919081693
H         5.96321152178315    4.19418603208071   20.33309394094499
C        11.13388707530409    5.54905774056914   21.08900581277782
H        12.02276156874557    4.93768534990403   21.26776991073006
H        11.18833731055548    6.43332711305014   21.73357895266138
H        11.17207904709923    5.89568772104453   20.03482749642136
C         6.80093420309517    6.75480065676634   22.00169344558137
C         5.41056358206473    6.71811151291032   22.02104433897459
H         4.85932064073849    7.12143714075886   21.18178236530768
C         4.73119958346806    6.17172474317639   23.08706402958664
H         3.65399386716206    6.16655991620237   23.05778812428209
C         5.41660289473791    5.62043729296446   24.18099917407600
C         6.81872443867013    5.66138444642988   24.14953762479696
H         7.39845655642644    5.24026090101388   24.95394167910036
C         7.49213598950707    6.19997716109246   23.07668883550026
H         8.57318092585163    6.16771390663454   23.05852091043273
N         4.73911027646775    5.07868503857334   25.24634929998039
C         3.33058081162584    4.79097500369508   25.11648258462453
H         2.75942639319016    5.71609156026711   25.00894386983391
H         2.97980168016156    4.28606366732753   26.01337067695217
H         3.12232683442692    4.14795974459694   24.25352886983710
C         5.47067982082892    4.38520787824933   26.27876769627954
H         6.01011065635888    3.51330717095646   25.88975258205336
H         4.77773945958657    4.05020656408871   27.04747344232228
H         6.18849993355295    5.05972781142296   26.74922464126214
C         9.04594328679863    8.27546632702605   20.98301029553444
C         9.92140534491172    8.68188206202162   19.97718380983560
H         9.75165956015176    8.34003140879841   18.94814233808230
C        10.98718375734588    9.50755179459580   20.24384332627582
H        11.62835565289050    9.79537326713335   19.42800309201185
C        11.22657092290718    9.97558344492450   21.54841585395073
C        10.30706383018684    9.60535207076399   22.54348572138582
H        10.42679016937537    9.95798916735399   23.55522909159141
C         9.23934026141119    8.77891425140012   22.26482923470920
H         8.54872828168722    8.52703692862759   23.05688510344677
N        12.30760684423751   10.76090760131678   21.83331575940442
C        13.28458103544612   11.05969283771769   20.81543257950386
H        13.62257443699255   10.14347754954398   20.32645797627031
H        14.14965953896277   11.53476949711180   21.27252246637095
H        12.88298963175063   11.73538995083739   20.05185610522554
C        12.45114395756080   11.36689325232534   23.13322376556354
H        11.55758972482826   11.93821222474308   23.40256147306361
H        13.29688928848250   12.05005633911645   23.12378018907782
H        12.62968982508066   10.61327813090355   23.90776436837032
C         6.63054138084776    8.26892917674171   19.53080158680253
C         6.12977076989959    9.41495955918180   20.14290142037057
H         6.36272239975657    9.60176221686538   21.18370982998659
C         5.34844926672138   10.30486875168469   19.44275487631205
H         4.98122866351359   11.17924995992551   19.95450928582733
C         5.04137331383732   10.08834460660373   18.08773109773165
C         5.57024258774035    8.93668713914987   17.48038928797454
H         5.38281326551372    8.73295040200404   16.43964167887121
C         6.34743868323228    8.04819720105391   18.18921005126460
H         6.75597072007704    7.17057977694833   17.69844542135005
N         4.24121659507341   10.95609728354786   17.39268170712705
C         3.84379095645594   12.20817216207266   17.98854082367500
H         3.25188697510521   12.03312643430364   18.89043917203205
H         3.22571514054570   12.76326852935331   17.28700851412686
H         4.70770238529783   12.82923903385449   18.25172001133249
C         4.06187717491533   10.79031116231628   15.97037553133050
H         5.01151264684001   10.85392078804489   15.42769264788912
H         3.40073653437478   11.56814936831904   15.59591830702195
H         3.59975290240396    9.82448409332372   15.75358823290492

