109
CSD_code = RUWDUK | q = 1 | S = 0 | Stoichiometry = C56H45ClN2OP2ReS(1+) | MND = 6
Re        1.97055669094166   20.25886212080353    4.85760607555071
N         1.80940615543434   18.57516102129060    3.30853375478385
N         1.58635419192022   19.31912560555680    6.29395900817382
S         2.20435170269715   17.16700687536767    1.18194641621732
P        -0.24372472217165   21.12620935138943    4.10635833905860
P         4.39634854564048   19.71575100715156    5.21809683584426
Cl        2.11649056012840   22.20753404792172    6.15330837370795
O         2.54562335992252   21.19051901097625    3.29084042708215
C        -1.04791337652005   19.89136793417386    3.04493150469513
C        -0.53856685032925   19.69347118084573    1.76163723237250
H         0.24152366225570   20.34571461292029    1.38706164691439
C        -1.03234291569795   18.67792674230864    0.96621019394461
H        -0.63573055824168   18.53182154492691   -0.02784870101483
C        -2.03393167190215   17.84779018873692    1.44617295026171
H        -2.41562220502843   17.05143638736715    0.82605156353607
C        -2.54782107395093   18.04508662650299    2.71655446203696
H        -3.33400733287290   17.40468928624615    3.08615045208271
C        -2.05487458339811   19.05897357270812    3.51937679633830
H        -2.45504489415229   19.21108918804800    4.51156150056876
C        -1.45433521543851   21.51899628180541    5.40048161599346
C        -1.49483453367395   20.70709708773132    6.53075609911695
H        -0.79714911531941   19.88418180253737    6.61324999702488
C        -2.40411245353125   20.96474163413601    7.53883342234340
H        -2.42955447587900   20.33358972583040    8.41452151319052
C        -3.27421870920804   22.03782553677156    7.42600868241510
H        -3.98021973857259   22.24515340341270    8.21538173266113
C        -3.23160720014381   22.85096626532589    6.30537417118499
H        -3.90485582506572   23.69040491468457    6.22158005265450
C        -2.32436860650330   22.59793731186601    5.29157920875455
H        -2.29099705739026   23.24020587357517    4.42349261052415
C        -0.17477874105662   22.61699379486501    3.07010050401247
C         0.76436206124831   23.60901811931483    3.33588818402873
H         1.45539540916760   23.49194865126682    4.15869921229726
C         0.80448461735972   24.75031376628866    2.55478146355910
H         1.53666081988668   25.51608986458896    2.76307987721987
C        -0.09444451098063   24.91408734040215    1.51413899477970
H        -0.06023156490174   25.80361799460041    0.90382988886902
C        -1.04565003917000   23.93815264369283    1.26129422876943
H        -1.75729309628732   24.06932592787241    0.46004362623610
C        -1.09075358955982   22.79225689823967    2.03354135277109
H        -1.83871744192885   22.03681979518414    1.83472353453711
C         3.20307017941621   20.96994929072983    2.20447258216813
C         3.89607384539686   22.01376941983791    1.56047311778287
H         3.84593848715780   22.99865501931402    1.99973520939732
C         4.62511516261311   21.78106431330502    0.42124433172511
H         5.16203110353563   22.59293691665943   -0.04493725305316
C         4.67568586350613   20.50445996954329   -0.13745814191074
H         5.25369750078219   20.32701439511134   -1.03001814957128
C         3.97447411605897   19.47690687187723    0.44498379879407
H         3.99940007897091   18.48888056632358    0.00767412244125
C         3.22678589751809   19.67254765742641    1.61257224619616
C         2.44325118974333   18.60267822018621    2.15946351756310
C         1.16860531754730   16.52061566359882    2.41230505382800
C         0.49102960710784   15.31303420244295    2.41027768061087
H         0.59003916276112   14.63486370047178    1.57813505283895
C        -0.31176102578230   15.01612840416684    3.49241011308336
H        -0.85159274383292   14.08284654765665    3.51569208058406
C        -0.44103725689806   15.91723260573615    4.54717122705414
H        -1.08652532668807   15.67307245396100    5.37632846723872
C         0.23196912876891   17.11974672954220    4.54791355768610
H         0.11239493629779   17.82622235351403    5.35334370978632
C         1.06746215904147   17.43249600646422    3.47733895951242
C         1.53010965352755   18.74158425431698    7.49479402334054
C         1.82925925911895   17.38042839869479    7.69440787189069
H         2.04358100347006   16.76214142957646    6.83592415440066
C         1.86782972215133   16.86056016404915    8.96697243074448
H         2.11821867955416   15.81937166806156    9.10592258185611
C         1.59097884344431   17.65097732111214   10.08120712316867
C         1.25640177434244   18.99067147309455    9.88020468707543
H         1.02716432223146   19.61205294679415   10.73312182807824
C         1.22322421387664   19.53733447572707    8.62100166678703
H         0.98499967320597   20.57771966797598    8.46144764333975
C         1.62773253649149   17.07630867386793   11.45728928952606
H         1.98353974909916   17.81183351370999   12.17455977665378
H         2.26578816355734   16.19761925770822   11.49768739718333
H         0.62385309447828   16.77749032218737   11.76113689489926
C         4.93278507717108   18.37951147222811    4.11697040085872
C         5.83872594114815   18.56643988024492    3.07967298592942
H         6.30640975284597   19.53008245777334    2.93365079794435
C         6.13546150472358   17.51515626384640    2.22859688872916
H         6.84220795484200   17.66262826799881    1.42624059000567
C         5.52675042229012   16.28302754444665    2.39922344688140
H         5.76002682845399   15.46849699566606    1.73086986272023
C         4.60976905211210   16.09630209857797    3.42373731861357
H         4.12639029875189   15.13884415753923    3.55211514998783
C         4.30853029020263   17.14149031309333    4.27464912979159
H         3.57891030225348   17.02127355280070    5.06597877683618
C         4.76147827985804   19.13798774150752    6.90299213603193
C         4.37480871744457   19.99166395732252    7.93470363169810
H         3.88836155861800   20.92744526978036    7.69318430904540
C         4.60703539807251   19.63651211478550    9.24900885800582
H         4.30797607977569   20.30033737534594   10.04546770011160
C         5.22163934985863   18.42922823511686    9.54212307058820
H         5.39884019227023   18.14819905058179   10.56897093228297
C         5.61842954551073   17.58676233819523    8.51773457236180
H         6.10957950970394   16.65250129062619    8.74494247513403
C         5.39445078720125   17.93684265244984    7.19724707412947
H         5.71564553570003   17.27655014088088    6.40449318757309
C         5.61101579808017   21.04504743434428    5.00796257184302
C         5.23468338696629   22.34171626353907    4.68456551124090
H         4.19008250533180   22.58654002280418    4.56256099044909
C         6.20058860321303   23.32431384551785    4.54909325098865
H         5.90845012649378   24.33381093767579    4.30194548040552
C         7.53647879245452   23.01657581097979    4.73956961898241
H         8.28788047613188   23.78417749801327    4.63405262762783
C         7.91261861537652   21.72474266733360    5.07834427565036
H         8.95372770296728   21.48869798642069    5.23879365669614
C         6.95573678823062   20.73890309956042    5.21746966631997
H         7.24098107633977   19.73191544911777    5.49158159643596

