74
CSD_code = RUWJEZ | q = 0 | S = 0 | Stoichiometry = C36H31IrN6 | MND = 6
Ir        5.21558317418883    7.49764150697066   12.51706763098802
N         3.72115218141377    7.15766228730346   11.04612484703301
N         6.59876396941074    7.82623470562868   10.93824117993529
N         4.61410816407865    9.39800612241958   12.60776110190045
N         3.67427596417994    9.66530425100226   13.52223601706648
N         5.82418706088836    5.59801529870899   12.56284078389142
N         6.83391619221885    5.33354814734858   13.40023483783576
C         2.45214494422315    6.84355967863563   11.25947168877767
H         2.05387003354731    6.76489951407714   12.25555986116022
C         1.75770919093046    6.63896684302523   10.05327354923536
H         0.72137465212208    6.37571443264965    9.95987446588452
C         2.66936092396844    6.84449041686939    9.04938556600529
H         2.51281481259991    6.77971903972829    7.98947994024775
C         3.90378432490413    7.16849240702577    9.68053968068389
C         5.09576976147171    7.44950738177446    9.01606325993790
C         6.32789004046948    7.75812815370147    9.58915177276345
C         7.51667529649687    8.05973092369069    8.86613064032713
H         7.60353347545342    8.08095915755209    7.79651249067395
C         8.49014806463088    8.31079107802185    9.79920182461021
H         9.51651383150443    8.57369861735947    9.62753528690913
C         7.87687731779338    8.15395544125985   11.05546495416011
H         8.33812688318658    8.27512767585343   12.01961627348238
C         5.04727493713343    7.41822612380857    7.53296431990577
C         5.30896022760134    6.22758260892254    6.85681743707355
C         5.25616854675988    6.21459743492411    5.47115257451051
H         5.45795575197500    5.29213270327156    4.94445671099343
C         4.94846999883902    7.35821288681016    4.74927754875716
C         4.69252210842891    8.53363553932187    5.44205410995401
H         4.45175898575597    9.43172789450210    4.89020414104868
C         4.73790711786653    8.58032799159827    6.82624640122565
C         5.62741005353567    4.98295060455390    7.62970117834363
H         5.91348732584662    4.17446987422742    6.96156534882222
H         4.75743456728175    4.66722939519668    8.20572163734995
H         6.43996041889754    5.16574794975255    8.33172544789032
C         4.91329031879136    7.33692055526248    3.25056333185319
H         5.85458145948313    7.71458955097875    2.84952918635005
H         4.11206627485453    7.96935673503036    2.87384976920235
H         4.76861371310098    6.32525647235223    2.87913981503384
C         4.46601931864493    9.85486127294232    7.56749504582372
H         4.18857755677139   10.65073362120332    6.88073879511659
H         5.35261738730105   10.16380081156042    8.12113328166345
H         3.66037314029417    9.71270312489568    8.28714130121620
C         4.85082857641304   10.52314294377857   11.94641158767321
H         5.57516017600831   10.56354044487696   11.15703971188546
C         4.04265029234279   11.54255585916401   12.45059480485420
H         4.00369357813983   12.56190611488407   12.12660350614758
C         3.30452413153688   10.95660677696898   13.45670901860086
H         2.56350655058801   11.37959104138167   14.10296556639945
C         3.25418341337497    8.60093124730662   14.33419726047637
C         2.29657778854554    8.75428681875449   15.32519178047613
H         1.83837485298365    9.71403064017487   15.51253846996291
C         1.93264561773312    7.65091219808016   16.07535253958072
H         1.18770948940171    7.74916734545919   16.85070098540896
C         2.52630964283030    6.42477613277692   15.82579759138982
H         2.23957153018745    5.56316665984243   16.41183997658952
C         3.48319377596529    6.29341971020471   14.83140441316746
H         3.92266504315833    5.31977513632846   14.66125460513850
C         3.87975768862665    7.37356535313163   14.04831180116037
C         5.54171634133365    4.47326522683040   11.91912670336670
H         4.75789103034621    4.43102232662401   11.18891235780488
C         6.39179747917561    3.45684065570164   12.35581661012211
H         6.41012717859571    2.43846062744759   12.02700594269951
C         7.20358516157645    4.04424261196668   13.30260613828880
H         7.99519373047667    3.62351830325502   13.88739887830456
C         7.30974451179076    6.39776389853056   14.18112362465475
C         8.33739541616573    6.24487276467209   15.09934223590974
H         8.81127257013547    5.28622101189574   15.24963204174843
C         8.75069674065266    7.34700408311752   15.82532790692173
H         9.54984206141088    7.24890357855078   16.54469532570943
C         8.13605732607037    8.57165941017132   15.62396656852090
H         8.46087130380656    9.43221346586087   16.19140535503842
C         7.10950003934869    8.70274964665463   14.70164021368234
H         6.65548714665590    9.67537132649753   14.56741669688735
C         6.66084034577251    7.62370040738652   13.94552474578543

