71
CSD_code = RUWJID | q = 0 | S = 0 | Stoichiometry = C35H25IrN6O4 | MND = 6
Ir        5.26941278154836    3.80156929705395    9.46064368025267
N         5.99718536933635    3.23776175030296   11.36208457730697
N         3.33029489166722    3.43689104481733   10.19755673903676
N         5.57445853450876    1.89920211559976    8.92423852538682
N         6.78759418369949    1.63507134028367    8.42709557455647
N         5.05344418026968    5.74392319905679    9.85760273336224
N         4.60521046076849    6.49525269933346    8.84458810672907
O        11.00229005478150    3.78505982264454    7.15753506997408
O        10.21791561938897    5.84788811568590    7.82330197562865
O         3.14855456416153    6.19474970565537    4.17530019581262
O         3.53580952516394    3.92267083048540    4.14272918876586
C         7.25114285645656    3.31562123716653   11.78129058777216
H         7.99014803745585    3.86999245913130   11.23083996101448
C         7.44141669187303    2.60249664401356   12.97823179097827
H         8.36445790757777    2.51069181240258   13.51778373500513
C         6.22332132369387    2.05787217562865   13.29668578297357
H         5.98239158360892    1.43922519052322   14.13920530291180
C         5.31250043332034    2.47487718760701   12.28497031265213
C         3.94338453988863    2.20626415040346   12.25051573141869
C         3.39689301401908    1.36447095957425   13.33703342423817
C         3.38530217420290    1.81540578830341   14.65249280004719
H         3.77318989223709    2.79803383990632   14.87822046838304
C         2.86865682720449    1.01992913423505   15.65919306701097
H         2.85944555586416    1.38139741587835   16.67717489904535
C         2.36597222413542   -0.23654949930871   15.36532144331752
H         1.96612364975187   -0.85805350542386   16.15288208018238
C         2.37613676336722   -0.69267071449772   14.05784127608664
H         1.98468182217806   -1.67186262836307   13.82337824101457
C         2.88346448655547    0.10446010358340   13.04796575681612
H         2.89328512868161   -0.24986490420049   12.02733431477808
C         3.02635675551897    2.68071050014389   11.31040348418110
C         1.61248197760047    2.53054431012602   11.38772809827666
H         1.08204021328627    2.00493160832487   12.15810033716680
C         1.08580995214259    3.20654504955618   10.31683391204697
H         0.05175946621560    3.31846890016798   10.05299588999116
C         2.18040900835373    3.74093523457303    9.61438436962310
H         2.14594762863248    4.32343978501644    8.71082624512806
C         4.91373459533384    0.75022620161314    8.98363175434582
H         3.90606994350754    0.70646876859601    9.34687412618952
C         5.72415906027988   -0.28152474059084    8.51159624619854
H         5.47717738592580   -1.31989429151279    8.43327332494617
C         6.91431010793771    0.32254198718787    8.16440231263576
H         7.80846472634204   -0.10386973313341    7.75990433016263
C         7.67024022635155    2.71291060848346    8.27231005097145
C         8.94955739892550    2.52800290342988    7.73904620377285
H         9.32218479894438    1.56801496298032    7.42583863059827
C         9.72048545048377    3.65633938091490    7.63503500842342
C        11.31539408688343    5.15582040339122    7.27138191674406
H        12.19529414695076    5.27959963719141    7.92380002761802
H        11.54595336762844    5.56510162910149    6.27412463963055
C         9.24421793341494    4.90372726723286    8.03834820246832
C         7.98367002627896    5.07008450349320    8.56118207696433
H         7.65813652033234    6.05199088541769    8.86521294963689
C         7.15508536093764    3.95009288151363    8.69357986244982
C         5.23340883485574    6.54988415259929   10.89629680546595
H         5.59370325828191    6.17547202031214   11.83389331680085
C         4.89230609524162    7.85491671630305   10.54178747835744
H         4.93022397019868    8.72834515952434   11.15904068453448
C         4.49518970332504    7.78106422059262    9.22318757815713
H         4.15473162700639    8.55184470567607    8.56356861693501
C         4.33824136941670    5.84454635714484    7.63245391704212
C         3.85364577054629    6.54417239492642    6.52306159214920
H         3.66909843613824    7.60460485634136    6.53203520081456
C         3.62050653673896    5.79194516558376    5.40107593474343
C         3.09513179183753    5.02708977181696    3.38530958275862
H         3.74236467468291    5.15043297333314    2.50155363613890
H         2.05854326794023    4.85562693488973    3.05153056775476
C         3.85538261109263    4.41698298938037    5.38329105688749
C         4.33294905926765    3.74264928258284    6.48220646769581
H         4.49620963721903    2.67862933827231    6.42737946462180
C         4.58733814063200    4.46150755002106    7.65477675651926

