65
CSD_code = RUWJAV | q = 0 | S = 0 | Stoichiometry = C33H25IrN6 | MND = 6
Ir        3.58137094542199    0.66321257249140   13.82858187106809
N         3.33430975277647    1.79699446494436   12.04873164462505
N         5.11415454302481   -0.39980022840966   12.82245093088205
N         4.95712478130751    1.84668803630943   14.65635960223305
N         5.41048169294171    1.46088208980487   15.85565244317326
N         2.12284381917083   -0.51460575918308   13.13099242760808
N         0.88154662454423   -0.15352139839479   13.47573314807772
C         2.55281783778323    2.85334382500394   11.88666124685489
H         2.09583654267636    3.34441298150011   12.72757024501070
C         2.42639186858309    3.20110999155866   10.52959320808024
H         1.84869470781302    4.01691110185046   10.13886388271911
C         3.17811262543792    2.29109660154000    9.83093949875963
H         3.31660885265324    2.23254619019274    8.76866530404395
C         3.76083086249854    1.41821011379007   10.79365148291563
C         4.65246459514769    0.37952118445322   10.52358103565788
C         5.29927833077545   -0.43288315287053   11.45652623991611
C         6.31694242213454   -1.38311268323076   11.15605707770142
H         6.68588016537370   -1.61308324847533   10.17498545727379
C         6.73248111895826   -1.90608155165894   12.35374508554675
H         7.49148571576663   -2.64592294449975   12.52200747869849
C         5.96084116277981   -1.27353647618495   13.34505451044542
H         6.00729301116198   -1.44569877921413   14.40598451428632
C         4.97580332510483    0.12995712821113    9.10127646183128
C         5.70411101519224    1.05567109995042    8.36246544128807
H         6.04191349274990    1.96470145860508    8.83873241787105
C         6.00452558425343    0.80882775880552    7.03505303815133
H         6.57571434835707    1.53175860268350    6.47081379650001
C         5.57428776046673   -0.35985866534907    6.42940638580718
H         5.80686156346336   -0.54993110178953    5.39194623601931
C         4.84607549656144   -1.28471170253433    7.15874624098282
H         4.50784771800740   -2.19782911533179    6.69067883028420
C         4.55223458102095   -1.04449843914972    8.48865726598059
H         3.98365176346940   -1.76443449385079    9.05971603619378
C         2.01790310779075   -1.55724573271020   12.31812478739190
H         2.88670833571399   -2.03397762418056   11.90889722092449
C         0.67214979140507   -1.87615667893497   12.13546585237718
H         0.26576401269723   -2.66550209742750   11.53766504266206
C        -0.02403454143064   -0.95725623413088   12.89127773278320
H        -1.07839279952038   -0.84140656317747   13.03467744501347
C         0.75091756392436    0.94377300913947   14.34058754181114
C        -0.48256640312905    1.39460847131356   14.78556944206238
H        -1.39680556978962    0.91071462032085   14.47552481234487
C        -0.52622262350978    2.48274142261893   15.63781112788630
H        -1.47703364468321    2.84975248045487   15.99418124430870
C         0.65234800902436    3.09570362262299   16.02915744222532
H         0.61706936085359    3.94605068617132   16.69535721293737
C         1.87524909469425    2.62910704496763   15.57272729475167
H         2.77479809945767    3.13615848047316   15.89559495370317
C         1.96994537741648    1.54009281429001   14.71066943893744
C         5.60613085981929    2.95627211083866   14.32915208691289
H         5.41204209145055    3.46152818608319   13.40374537077785
C         6.50064051153095    3.29369636930798   15.34549022961233
H         7.16427909975357    4.13288282845971   15.37601708416925
C         6.34730139240137    2.31511192573374   16.30418553545598
H         6.83984539037962    2.19069370220565   17.24635268530193
C         4.85760995496915    0.29157931095282   16.39919963489573
C         5.24687608533725   -0.21502661618760   17.62984340642599
H         5.99649749031114    0.28453868813406   18.22546592072574
C         4.65790258703356   -1.38048304186040   18.08555810562780
H         4.94790596951407   -1.79218473517259   19.04061924374699
C         3.69979924676105   -2.01396858181714   17.31168250077047
H         3.24232142035886   -2.92569227309380   17.66867530651145
C         3.32369445269129   -1.48983080289258   16.08463905685399
H         2.57498168342722   -2.01295470693927   15.50542811612534
C         3.88885596596864   -0.32135554713078   15.58297663747625

