87
CSD_code = RUWKAW | q = 0 | S = 0 | Stoichiometry = C37H46FeO2S | MND = 4
Fe        5.67758469923617    3.42719742973750    1.80307475145462
S         7.63985307981764    2.53674764335252    1.32536815529372
O         4.95039070489974    1.16425058068104    2.37294167135864
O         4.82415120920881    2.36948133148907   -0.25861161479626
C         3.99843929839840    4.46305898639342    1.73038311815492
C         4.00777777741766    5.53675297972604    0.83244750780994
C         2.87569935133564    6.31357789583618    0.61823262719668
C         1.69525551584223    6.05594489433241    1.29596465796422
C         1.68293313954131    5.00713736608801    2.20401006223257
C         2.80875648215193    4.22349284815841    2.42321156890309
C         5.27164575395129    5.89535507427592    0.08473897867094
C         0.46204723402121    6.87952967376052    1.06368986637167
C         2.72094437765529    3.11742396644745    3.44043168106034
C         8.80255491753969    3.73932528945335    1.85400613098078
C         9.95310602223025    3.97903027272667    1.09229253631036
C        10.85240429485960    4.95171290102355    1.50357346444839
C        10.63686966778602    5.67434517834119    2.66422688479725
C         9.52263295872110    5.40559412433878    3.44070589814392
C         8.60510357759242    4.44254460607293    3.04998342697656
C        10.24240755064874    3.18429489118987   -0.12432689628170
C         9.62979085180129    3.48223906607033   -1.34024088785734
C         9.95265629365253    2.73685492554532   -2.46401062544546
C        10.87083481424153    1.70011304498185   -2.40423022412773
C        11.46110288250931    1.40770873665566   -1.18325672512080
C        11.15958824527791    2.13485810894779   -0.04296762785895
C         8.60511964889866    4.57256819070140   -1.42238982839758
C        11.19699887672479    0.89173891941813   -3.62504770780645
C        11.79678812772802    1.79113214547440    1.27104636101149
C         7.45035791812417    4.13141470740816    3.93163297023377
C         6.35633569473043    5.00061105184797    4.02486413365866
C         5.34268636456161    4.72140779149703    4.93940432561218
C         5.40857025246982    3.62222723841374    5.77838087028453
C         6.51559436832400    2.78451976795978    5.69206582369955
C         7.53249175065998    3.01895522792208    4.78170665388036
C         6.33650042021653    6.30070315141549    3.27382098704804
C         4.32473953416292    3.33291413477763    6.77319736088716
C         8.72536157468002    2.11350346811072    4.71689038028700
C         4.72026991915718    0.46267263768095    1.16848932498404
C         3.95473553270132    1.35628625963950    0.20550198556718
C         5.66262766522282    0.38240811153745    3.30895863284730
C         4.31125943545196    3.04274870437120   -1.38726057947234
H         5.08254235720486    5.96202635838221   -0.98575878248658
H         0.68409362553181    7.74379454715783    0.44186622234633
H         2.30095636675416    3.49318701935140    4.37205341698802
H         3.43156203728715    3.64034490662800   -1.12732962754570
H        11.07468508437324    1.48569415345211   -4.52820349061926
H        12.39924736593963    0.88996315180924    1.18387436170980
H         8.77750409906974    1.63425217764823    3.73960745916003
H         3.64883234964095    4.17895263025112    6.86658057024935
H         5.32131517971588    6.55862511845882    2.98440152621876
H         5.10568128272007   -0.53210256123073    3.54632366611595
H         4.13612315440895   -0.44601643137353    1.37641393621048
H         3.60435037461442    0.75092666972257   -0.64240400631126
H         8.41467672296194    4.85421833574582   -2.45553076916437
H         2.92255761512180    7.13463204548073   -0.08665906824619
H         0.77622183020759    4.79654242735525    2.75792429637893
H         6.05285116443157    5.14618646883411    0.26528511323957
H         5.64126174363119    6.86693101334338    0.41103119909244
H         0.04851329011385    7.22729165872665    2.00955446175104
H        -0.30412019668238    6.28489588092854    0.56471288776960
H         3.70996086967976    2.70845375036371    3.63358841912251
H         2.07210601332935    2.31659650636592    3.08370297300325
H        11.72858506628049    5.14162389152233    0.89880826945882
H        11.34097285952970    6.43417208641224    2.97029140153706
H         9.35955172346603    5.94033619602699    4.36606169087338
H         9.47692598121476    2.97105114145939   -3.40691372875771
H        12.17148864906767    0.59441372610735   -1.11944379610757
H         8.92284078436496    5.45195611356582   -0.86427488913760
H         7.67239554672825    4.21289497594648   -0.98293807092631
H        10.52881106120135    0.03214477457577   -3.69334697514947
H        12.21867579476179    0.52033121433839   -3.58279983478371
H        11.03170554562160    1.63148273020311    2.02961039432625
H        12.43460792891381    2.60467077329883    1.61525797809234
H         4.50468834891007    5.39956451264066    5.00842449541830
H         6.59403957124301    1.94284530428032    6.36830722460164
H         6.96788592655249    6.25101570498985    2.39056931553875
H         6.71955029401486    7.09508952026399    3.91614030204537
H         4.75033273492585    3.11421018464273    7.75130577547667
H         3.74643126086931    2.46364357308069    6.45930349555799
H         8.67177213230922    1.34229621407041    5.48173665370328
H         9.64428408363527    2.68327020775432    4.85177131311822
H         5.67929433037611    0.18367360845039    0.71096526235903
H         3.09328387078583    1.80513747301628    0.71629014658776
H         5.77802429206286    0.99135865661340    4.20288085011669
H         6.64990604646725    0.11218157685371    2.92083538291515
H         4.04355682662902    2.32542777217831   -2.17221592453940
H         5.10329922587591    3.69142891649900   -1.75086157827865

