46
CSD_code = RUWLIF | q = 0 | S = 0 | Stoichiometry = C16H26CoN3 | MND = 4
Co        7.75287875822700    5.04859452379335    3.12734024904333
N         8.68911468604219    3.45653941305887    2.95062364570191
N         7.45666104089392    4.47804679669847    4.76270021269488
N         6.52114081593416    6.35272374677178    3.57996170270556
C         9.75057216271450    1.61766149061263    4.31083118247218
H         9.71586305781368    0.95477913193646    3.44954828425962
H         9.37942697694177    1.07619383905624    5.17822789062463
H        10.79501115778929    1.87669337595732    4.49465816754416
C         8.94156751842798    2.86334742717569    4.10517765816321
C         8.33972110491607    3.53362205684141    5.21301700439813
C         8.54599693981257    3.36850162741051    6.57733027845720
C         7.89657285279601    4.21479937148182    7.46724621995919
C         7.12012251144656    5.26426799172159    6.99270370598057
C         6.93222583503452    5.40773248429778    5.62294184674882
C         6.26797635630270    6.42641812607907    4.87550334728139
C         5.33136416964314    7.40893131502380    5.51213433058105
H         5.51477390719713    8.42169742679130    5.15833238558170
H         5.45255027300439    7.39207667612177    6.59090528246200
H         4.29430207072518    7.15256458680320    5.28677561610047
C         9.05661747415374    2.81452492765823    1.70195003833489
C         8.14568761431097    3.33976562375663    0.59384817032638
H         7.10108964636584    3.19293780243655    0.86667432184071
H         8.34036315234886    2.81425336759303   -0.33847811060986
H         8.33004313992716    4.40131214897574    0.44069337997019
C        10.52507031271306    3.06243115374294    1.34552935990115
H        10.69463173629460    4.12661089460062    1.21249695511819
H        10.77539649188374    2.54710231434728    0.42097119790132
H        11.18147653797615    2.70391508178113    2.13364548071786
C         5.76652830931727    7.17174393640402    2.64939497335244
C         6.48457506413086    8.49130037567256    2.34986074889695
H         6.71053012278450    9.02710019127903    3.26842688331205
H         5.85781674349820    9.12183528088390    1.72317254393114
H         7.41770481099731    8.29326732315028    1.83248420680977
C         5.58031402635290    6.36706187686943    1.36338767993944
H         6.55656482661264    6.01850931141733    1.02048755831740
H         5.13043326786693    6.97943295972934    0.58564727135613
H         4.94265009986554    5.50417397471855    1.54518698575109
C         9.23171468586208    6.26620425477875    2.56747842526788
H         9.19090043932469    7.21534044682825    3.10494433757567
H         9.21257909422638    6.50296536098043    1.49912462086213
H        10.21250994630411    5.83693405265409    2.78025893094802
H         8.89242213162722    1.72908551748068    1.78582571085899
H         8.03983232600096    4.09026215642501    8.53000670543964
H         9.22456538371969    2.61292227605850    6.94161430558727
H         4.77624581714492    7.39863919815919    3.06890179768267
H         6.69269460272615    5.97377678398090    7.68450650985030

