43
CSD_code = RUWLEB | q = 0 | S = 0 | Stoichiometry = C15H23ClCoN3 | MND = 4
Co        2.41220790941458    0.32838497221047    1.50369894105000
Cl        1.19209604373474    1.44057822083806    2.77459585516223
N         4.04111754295879    1.26825912241594    1.74848935763568
N         3.04624626315677    0.05266319112642   -0.08457232053191
N         1.17866617497436   -1.02224836666164    1.00403028222803
C         5.98126876757006    2.22581142449611    0.50243543676052
H         5.94571776775014    3.16185224937580    1.05519673554154
H         6.18310574451678    2.44850481747406   -0.54047431712270
H         6.81158021371005    1.63191396467068    0.88771915004524
C         4.69382114902644    1.46872145089228    0.62987709004887
C         4.08865845744754    0.81941350451361   -0.50039311484889
C         4.42644102328254    0.86672549326367   -1.84965201562501
H         5.25242785047736    1.46892422860304   -2.19197367816192
C         3.67560770673193    0.13583445222894   -2.75961333303626
H         3.93006176704672    0.15809560732452   -3.80803941823470
C         2.58225701034467   -0.60297528147646   -2.32910579085989
H         1.97924057323386   -1.14056805091942   -3.04312193710594
C         2.27321331415482   -0.62691799135527   -0.97245033262206
C         1.21564009682866   -1.30530770701278   -0.27496068006018
C         0.31962687214269   -2.28376133819284   -0.97277888856248
H         0.63515461582364   -3.30665909476060   -0.76102231169891
H         0.36672446933818   -2.13307692125860   -2.04672740772301
H        -0.71394452350671   -2.17146236080719   -0.65394878060459
C         4.62764632006012    1.70727235337562    3.00447286425727
H         5.72019359768683    1.75597283016713    2.89585912631577
C         4.30667967556901    0.68573355657718    4.09487365391649
H         3.23657303989883    0.66825502599638    4.28421897134090
H         4.82023311431604    0.95417614434552    5.01494548458474
H         4.63083374383623   -0.30789896811180    3.78821369841580
C         4.10088748008478    3.09167956526564    3.39175246980022
H         4.32269392139183    3.82415547467718    2.61850494967494
H         4.56026376134591    3.41311383581153    4.32293504923378
H         3.02373481087119    3.04578918717357    3.52471371930756
C         0.28999087460356   -1.77380756145346    1.87568690779651
H         0.08660954178732   -2.75548003903141    1.42560819068440
C        -1.03297359906510   -1.02861250501372    2.07197703575473
H        -0.84284878589311   -0.06994025254989    2.54643578977321
H        -1.69473252485982   -1.61375612163172    2.70558801082695
H        -1.52495534551399   -0.85022964865523    1.11800516299822
C         0.98209748959200   -2.00449769501130    3.21847110906361
H         1.93627892918970   -2.50803002806450    3.06989691957598
H         0.35445544577765   -2.62228790380700    3.85627452489130
H         1.15570169916167   -1.05291283704681    3.71455784011456

