75
CSD_code = RUWMAZ | q = 0 | S = 0 | Stoichiometry = C38H32N2NiO2 | MND = 4
Ni        6.23958719393520    7.70789207573454    7.85698160556260
O         7.09771120714129    7.78934552247940    9.50147611812585
N         7.19062275460593    6.11957048142020    7.40725407079317
O         5.74120692062526    8.06417594387656    6.07817870543552
N         5.04498376144840    9.12389423082238    8.38142668819688
C         8.12784771486331    4.45647204168814   10.58943537700037
C         8.83363838471561    2.42961274967549   12.41473247753273
H         9.10712799784886    1.64375215923630   13.10306957373310
C         7.56772917401348    6.83334862784994   10.19788525523111
C         8.79745581322663    3.73687995441854   12.82532506911500
H         9.03756865115763    3.99678917575230   13.84690199650086
C         8.43985036150155    4.76306155076689   11.93702292963348
C         8.50008786053005    2.11628753084850   11.09556355852910
H         8.50747958593439    1.08435888915775   10.77486365010517
C         7.75771942373436    5.51708404126060    9.69864090440923
C         8.15422522746544    3.10310583646842   10.20657973297724
H         7.87392672701518    2.81943139045813    9.20306875508496
C         7.94981529915655    7.10146353079531   11.55311186318439
H         7.86905423827950    8.12392447889392   11.89021871877380
C         8.37313425123484    6.11338329146732   12.37342535969396
H         8.64866629550469    6.33290425713945   13.39603419511554
C         5.30641357277196   11.69552213639219    5.74355641307003
C         5.56909884152277    1.80245328093796    5.64510896084354
H         5.10038777863242    0.83218628125137    5.57166925954434
C         5.18579009360667   12.89479133463826    6.46970338403450
H         5.13926771694483   12.86906737943599    7.54804488141258
C         6.92400050501166    1.93938783379914    5.40541634030428
H         7.51665573055626    1.07471688166610    5.14342103594305
C         5.15589429340216   14.11191843107939    5.83737743136216
H         5.06458791857754   15.01740556910756    6.42004627217392
C         7.53212855751540    3.18119133921100    5.50379531931749
H         8.59157472588080    3.26297227872256    5.31429862803360
C         5.25282508243159   14.19561077358882    4.44639677621897
H         5.22615123569992   15.16014049780938    3.96166703742815
C         6.78618048472794    4.30213634100425    5.83814986153453
C         5.39482780072905   13.04813030987510    3.71099023033112
H         5.48722374528939   13.09429744303501    2.63489731536110
C         8.83903152855149    5.83760110213062    5.61338000567938
H         9.48637441494946    5.21839647344037    6.23169530163123
H         9.13484786856037    6.87651182255498    5.74793932454352
H         8.97615575403054    5.57077413749634    4.56825891466472
C         5.43181715076470   11.79096093356227    4.33500707530553
C         5.60255819900983   10.60328359541614    3.57727005859192
H         5.67882425198731   10.68898008557309    2.50197127456646
C         7.65287974045534    5.30398938605810    8.30511144052634
H         8.06257439177897    4.36163449192370    7.94375262745640
C         5.69195322698646    9.39038391276819    4.17177729188260
H         5.84462420141587    8.48988397889207    3.59483633761255
C         7.37098110455253    5.68738957850171    6.01149588147356
H         6.78229404699242    6.37368313656531    5.39119971585233
C         4.30070662821768    8.98418334625907    9.63279093413614
H         4.70968733426344    9.68366033691343   10.37643246802220
C         4.93983712802999   10.22567014521763    7.71639179095756
H         4.40965807305357   11.05964833115939    8.17663359380653
C         4.81608274751598    2.91763118766673    5.97746909815021
H         3.75599981201161    2.81896969946183    6.16164098122902
C         2.80520249049166    9.27875047957317    9.43219804445050
H         2.62721865162444   10.32230895051381    9.18528400980244
H         2.26691057172810    9.04523774112263   10.34779656785595
H         2.41104993149514    8.65972553871986    8.62938640683749
C         5.33877841715373   10.40643919438817    6.36598099024807
C         5.61179581052328    9.24317517442572    5.59439008892562
C         5.42106236515706    4.15563729995579    6.06966427965476
H         4.84340520611256    5.03297502833935    6.32529514390063
C         4.43564074870025    7.57048428836334   10.15767298697546
C         4.67376627654212    7.32469190373115   11.50100494257808
H         4.76155399432465    8.15294868887889   12.18973662887801
C         4.47692092931527    5.19424098405635    9.74582778841657
H         4.39827816697404    4.36305267001883    9.06004214156050
C         4.31376791300843    6.48958383255728    9.28176271808587
H         4.04387800452293    6.66158721467349    8.23948331553083
C         4.74069696204251    4.96206967405594   11.08621352918767
H         4.88396667605241    3.95320590317588   11.44327610548017
C         4.82390649261909    6.02760022234955   11.96361293100353
H         5.02306586124525    5.85138365779779   13.01028151292260

