76
CSD_code = RUWNOO | q = 0 | S = 0 | Stoichiometry = C38H30Br2N2OPReS | MND = 6
Re        4.37501199156410    2.45685682586435    3.43884721738666
N         4.82862808722861    0.98193666357947    5.11376279826349
N         3.19887734504222    1.40575577120370    2.65763204771257
O         5.74905064453442    3.39171084851783    4.32641403966486
P         4.27816176244286    4.19620643921268    1.76554179578647
S         6.31623096808552   -0.62650140908880    6.47171050548193
Br        6.31007589741059    1.38530761977746    2.07069937761169
Br        2.69271951550617    3.70240840256149    4.87051676695183
C         2.72775368666395    5.12900030390763    1.58114408947853
C         1.53947582701923    4.41335194524766    1.67948541252066
H         1.58301584039127    3.36222791315335    1.93258739648814
C         0.32943155742520    5.04831155886136    1.47711674015308
H        -0.59240770134280    4.49414298727068    1.56749145000053
C         0.30237403246715    6.39828842355280    1.16657477657497
H        -0.64217591059433    6.89934657759123    1.01623476708457
C         1.48570885556038    7.10842334007301    1.04948693954792
H         1.46396304892162    8.15989087950911    0.80308905817393
C         2.70071441808923    6.47832143173802    1.24988114899661
H         3.62077035159644    7.03870842195909    1.15813644508499
C         4.55527528219410    3.77326227559873    0.01866273739051
C         4.99373022292462    4.74547709760622   -0.87512812125234
H         5.23483936130433    5.73906055204667   -0.52309776719502
C         5.13013544123640    4.43439254025935   -2.21482736113562
H         5.48151070003728    5.18669904739253   -2.90568840860815
C         4.81930925846816    3.16296310929666   -2.67028570657929
H         4.93463155595355    2.92386866975407   -3.71693457733302
C         4.36133965581600    2.20169511969027   -1.78521834981389
H         4.11585348409394    1.21120789763755   -2.13691895014667
C         4.22330397189711    2.50588838448961   -0.44325999367677
H         3.87557854354421    1.75834048688405    0.25466632021665
C         5.54816225677835    5.40765480571063    2.19413111734952
C         6.83353687548097    5.29309221069346    1.67099946365814
H         7.06444873072348    4.49866811259672    0.97388535261556
C         7.81160411161689    6.19057467580175    2.06053589866880
H         8.80858340832042    6.10461217907839    1.65445677190008
C         7.51748612537532    7.18532493441257    2.98077017802121
H         8.28462885732228    7.88337205789156    3.28300221345983
C         6.24877419158260    7.27090486273899    3.53508236002038
H         6.02952495168708    8.02673329868542    4.27500696576634
C         5.26367722558069    6.37927066572635    3.15195047276506
H         4.27816829479290    6.42511290894899    3.59785952716847
C         4.00542992937261   -0.04732065780548    5.48778435402284
C         2.63426864840212   -0.14381970648969    5.25872725833597
H         2.11081672021920    0.66702545399567    4.77896851696639
C         1.96684118323628   -1.26842498891684    5.69242166151170
H         0.90567501496024   -1.35214338990475    5.51585239161929
C         2.63305813605765   -2.28982406862885    6.36599470253758
H         2.08620628967090   -3.16133944053442    6.69162749716379
C         3.98069777566870   -2.18895392893523    6.64902573463895
H         4.50085476196627   -2.95715311723251    7.19900370124965
C         4.65447913910775   -1.05997255751174    6.21638344971315
C         6.04608823920787    0.86388608664161    5.57835573944943
C         7.09580451648562    1.83965633131668    5.50233818754614
C         8.34749659925899    1.57545678544019    6.06698880988839
H         8.52653816349001    0.59496021452441    6.48546555697028
C         9.33651946261007    2.52853277478047    6.09826338326349
H        10.29688738348270    2.29809381196760    6.53192805595829
C         9.08838781306036    3.79659547834908    5.57841582855979
H         9.85627647296899    4.55511383769885    5.61730911166110
C         7.87466967468873    4.09199676081726    5.00994269844133
H         7.67440704744368    5.06866000795819    4.59570129602439
C         6.85811940888795    3.12289540678632    4.92303295534901
C         2.42690280007363    0.45830648407759    2.11042590495339
C         1.02361628053229    0.53101237572767    2.18018386231586
H         0.56732345031827    1.37038206997778    2.68405356190323
C         0.25211866131718   -0.46446151925055    1.62426435115383
H        -0.82429378018027   -0.39541995068187    1.68791062465939
C         0.83258285277479   -1.55814870956477    0.98883960075113
C         2.22344555368599   -1.62953411680207    0.92208084393061
H         2.68707904327156   -2.47455730127720    0.43407881124430
C         3.01689436099194   -0.64718714846196    1.46542618408484
H         4.09399138337445   -0.70362808664495    1.41799591440427
C        -0.00746712399003   -2.63405523071446    0.37737771408289
H         0.04678304375348   -2.57776110855912   -0.71000132630692
H        -1.04819266616324   -2.53485866227073    0.67442264033860
H         0.35331103553977   -3.61688102675524    0.67510750423697

