57
CSD_code = RUWSOR | q = 0 | S = 0 | Stoichiometry = C24H24N4O4Pt | MND = 6
Pt        3.03118352037609    4.12730882774177    4.82654337088301
C         4.48867528983787    2.68678904174180    4.47178845448061
H         5.28554912127428    2.71397399241528    5.22104710619820
H         4.94585125953638    2.78166429520152    3.48628407873405
H         4.03101847825628    1.69585724238423    4.52042962336156
C         2.58724293988043    4.00850949467565    2.75509330661551
H         3.51908228437410    4.18322197878318    2.20457149218921
C         1.61612238832457    5.06618770025777    2.39451299103583
O         0.40943327226874    5.03196147104001    2.44340193004464
O         2.27142025176379    6.16577374626487    1.92298591282875
C         1.44752262983574    7.23177191022282    1.49163695593524
H         2.11805656268961    8.01100496005947    1.13651154586009
H         0.83223553145586    7.60638381786745    2.31423583234251
H         0.78636516947209    6.89912998443896    0.68802060059942
C         2.07157684806515    2.64201729325255    2.46674448245807
O         0.96960968424927    2.20756381298641    2.69746434776199
O         3.02117723391346    1.89721226665305    1.85241806520154
C         2.66186074900736    0.55423669712532    1.57229778240609
H         2.45211916364073    0.01585744610377    2.49921945087205
H         3.51253429885497    0.11241651819046    1.05964965579043
H         1.77195497490422    0.52184355997508    0.93998341602152
C         3.36380998264998    5.81847102215450    7.26632004392645
C         3.78014425306119    4.55826680513592    6.79667644757468
H         4.85139249271651    4.37212251437395    6.88350941679647
N         3.01972375151377    6.83330039286121    7.68315015023487
C         2.86575426958504    3.46691098905403    6.85241011266216
H         1.86223314929572    3.66394735937554    7.23916352163220
C         3.32248092345821    2.15722606899262    7.12811309689276
N         3.67396866565125    1.10537741573573    7.42381789876758
N         1.28640203616048    5.51223855535588    5.10888800222758
N         3.75542213787455    6.54612183586121    4.47021698303056
C         1.44406290820968    6.84774928942100    5.01988048943715
C         0.08210067112171    5.00092726787048    5.29258323597643
C         2.73058775250788    7.38761582818252    4.67319071850138
C         4.93067689023173    7.00946656983704    4.11088986602444
C        -0.89717993298933    7.18237735948976    5.48670178862734
H        -1.74058828494874    7.83759059422171    5.65018164474624
C         0.36481345060657    7.73706092468861    5.20926355369462
C        -0.11333444176351    3.52986765003026    5.20444644213215
H        -0.57952543302956    3.31947365068143    4.23975634783174
H        -0.76442023306951    3.16173287132390    5.99467783654873
H         0.83393819888544    2.98554708429309    5.20456374283563
C        -1.03838530726950    5.82394442747738    5.50891295965036
H        -1.99921593501142    5.36293919714851    5.67525959839086
C         2.87735337928699    8.78499557466743    4.53081301013589
C         4.14230819999472    9.26864443479742    4.15290787145011
H         4.28868904970741   10.33329835639880    4.03768035950545
C         5.16414186309176    8.38519068201701    3.93606155274069
H         6.14564165568222    8.72387027698680    3.64165343698689
C         0.56172247863484    9.13972320284402    5.09300738215490
H        -0.28611446340569    9.78671403489693    5.26393549247628
C         1.77234851929614    9.64668640685251    4.76185731332898
H         1.92283935013487   10.71152716346449    4.66135919619256
C         6.02761309231765    6.02142724356904    3.90309001122636
H         6.85427090990418    6.22381725169826    4.58266424430095
H         6.40541324363144    6.08754233101819    2.88435426282175
H         5.64481910429421    5.01800130984517    4.08000156693000

