45
CSD_code = RUXCUI | q = 0 | S = 0 | Stoichiometry = C20H20Br2N2Ni | MND = 4
Ni        0.20916324727661    1.18610532879429    5.20236025523451
Br        1.91124316231939    1.74420776283899    6.41592236220738
Br        1.24960769087326    1.08170880936815    3.22346393380883
N        -1.33805334973315    0.22800276128073    4.65475053185664
N        -1.31887718575122    2.80297056295922    5.43153754488202
C        -1.37300197783725   -1.05226827713945    4.69831986809434
H        -2.31154822527728   -1.58393663501020    4.52404219961647
C        -0.19855040194394   -1.81558363989718    4.96845754375622
H         0.71301923110330   -1.24072509537170    5.14042217213101
C        -0.17747529535274   -3.16098172448542    5.02226067386897
H        -1.10749715278700   -3.69810983333016    4.86942641805561
C        -1.23587390313878    4.07348122162091    5.33149292111938
H        -2.14295080431541    4.68169130621874    5.23793986358572
C         0.02240986393502    4.74534723927837    5.32608185252102
H         0.89371942759416    4.10710494848593    5.34913672199933
C         0.14170390479890    6.08485580634564    5.27794856938516
H        -0.76074518035858    6.68666897101905    5.24594421022691
C        -2.51550344629375    1.00019429798529    4.37136736315958
H        -3.42541205436418    0.38546772606053    4.40261194114319
H        -2.40468803466094    1.42275995336071    3.36452172744228
C        -2.60428729646874    2.15675128686328    5.38147911425064
H        -3.41235539569528    2.84790084931921    5.10166130909433
H        -2.82167437019567    1.74491470032310    6.37558801414321
C         1.38089949358252    6.82778751943574    5.26244231210247
C         1.32909974872707    8.22070775000353    5.13376584960947
H         0.36799132708271    8.70897200390503    5.05030632472723
C         2.48515024612646    8.97400589662780    5.10735831248027
H         2.42661685655581   10.04780312141408    5.00516969793374
C         3.71957337832758    8.35238532384154    5.21263357647121
H         4.62491771294391    8.94058686006135    5.19201527138481
C         3.78747074211338    6.97404299191549    5.34689447270463
H         4.74725208269153    6.48744857216400    5.43281377676606
C         2.63470825029105    6.21530717410490    5.37259767190788
H         2.71140277642206    5.14607269942645    5.48567567260110
C         0.97914119850675   -3.98335151140988    5.28845126665314
C         2.27992615381844   -3.46901197802636    5.34780879363472
H         2.46229803980641   -2.42130532725314    5.16995682513059
C         3.34936334425682   -4.29975896779167    5.61373656217532
H         4.34659241728212   -3.88838574994154    5.65419443360989
C         3.14968480794009   -5.65539075573338    5.82611545532070
H         3.98975750418411   -6.30056159703804    6.03529009294200
C         1.86861871703500   -6.18139930221900    5.76330819662246
H         1.70865264866550   -7.23749121613291    5.92339617876478
C         0.79600688047935   -5.35622808964942    5.49346122447495
H        -0.20179678056029   -5.76976374459278    5.44617092040948

