65
CSD_code = RUXDUK | q = 0 | S = 0 | Stoichiometry = C27H33BrNNiOP | MND = 4
Ni       -0.23100180006875   10.26374936316084   12.19558804945749
Br        1.20924600767131   11.73579043404122   11.28974222344872
P        -0.69702917123418   11.55419601478868   13.78681989611235
O        -1.69658101048313   10.75591210871255   14.80396525010455
N         0.17352379281562    8.51909436759400   11.03948785618966
C        -1.29666517732422    9.08904074564537   13.16973946552371
C        -1.86555743702749    9.43940642573899   14.39196510501006
C        -2.56544649154276    8.52186081533397   15.15230642883809
H        -2.99788171744417    8.81725828833744   16.09585466821774
C        -2.68925057803426    7.22400044046235   14.67612769865568
H        -3.22791427185811    6.49505475596999   15.26285579763766
C        -2.13334526276766    6.85537100076717   13.46398130667563
H        -2.24140316884946    5.84281065340103   13.10126614732035
C        -1.43685973145042    7.78607489444849   12.70219451887466
C        -0.85244226132265    7.49993722125301   11.34866076773479
H        -0.44207381912344    6.48577396046298   11.27112283329303
H        -1.65363692514358    7.58658513775293   10.60512993957501
C         0.76043917577690   11.92352780962894   14.87492754644687
H         1.38565102272291   12.64361759160256   14.33773731336833
C         1.53243692016100   10.61544860294187   15.02892060496136
H         2.45092315346473   10.76837031317353   15.59253826928711
H         1.79979234606982   10.22118047531719   14.04318801682561
H         0.92623843406427    9.87263827628320   15.54917084782515
C         0.32728146026840   12.48820836249364   16.22047644741858
H        -0.36743381129243   11.80803792090295   16.71057200470742
H        -0.15666301501324   13.45609421567454   16.10984513600296
H         1.19650062166294   12.61374814345757   16.86462331094370
C        -1.63959991241849   13.13597326470317   13.60104993191093
H        -2.08939382704527   13.31497211252464   14.58614214950296
C        -2.74184535556951   12.88338265122212   12.57542522890701
H        -3.43130065747187   13.72475858918830   12.53255434468675
H        -3.30700751618395   11.98562420157285   12.82983134478336
H        -2.30020656306693   12.75260747316598   11.58725589481200
C        -0.76037208141076   14.30665245440012   13.18641152674659
H        -0.22499076721269   14.07811180204829   12.26701441522122
H        -0.03143594461256   14.55304615934965   13.95468426170100
H        -1.37848523361627   15.18560534925972   13.01026853827736
C         1.48943537869985    8.12991969076220   11.60668795847223
H         2.18926667965602    8.95001521515229   11.41340096753634
H         1.35789345850238    8.01955385290507   12.68991333144312
C         2.07518702150576    6.85328088466266   11.05864357159926
C         1.85765188327630    5.64128442756184   11.70515810663033
H         1.29233329581942    5.61826933977438   12.62744504489404
C         2.37486494142159    4.46449041332448   11.19188773077685
H         2.19519230535083    3.53069704177730   11.70441777205028
C         3.12376361385192    4.48536624987166   10.02812991154993
H         3.52620043608987    3.56742320611559    9.62622968383173
C         3.36870964106339    5.69014246255596    9.39111293865580
H         3.96873473851900    5.71561726574633    8.49348097470866
C         2.85119343754092    6.86590154746021    9.90465776858960
H         3.06401181093409    7.80409523398771    9.41265602236241
C         0.26605745915642    8.71783197737811    9.58697034510147
H         0.53606751538588    7.77594823434144    9.08838083485753
H         1.05973430125666    9.45018933117054    9.39623761299084
C        -1.01267712220763    9.24266035368342    8.98536309040359
C        -1.43129274081272    8.78842976421454    7.74090266673562
H        -0.84548629682863    8.04315149160590    7.22104258711931
C        -2.58731715922430    9.28194828184503    7.16284713951277
H        -2.89924136747770    8.91910528981632    6.19453648216375
C        -3.34643781954785   10.23107091755630    7.82527403014690
H        -4.25037166709032   10.61386204194090    7.37556434164899
C        -2.94091727894077   10.68822917462483    9.06792549655477
H        -3.52780993712459   11.42999051725880    9.58966056086905
C        -1.78075930042417   10.19913949294183    9.63679818223470
H        -1.47179665444014   10.57506390318921   10.62572975955177

