33
CSD_code = RUXGOG | q = 0 | S = 0 | Stoichiometry = C8H12N6O6Zn | MND = 6
Zn        7.47269518908228   -0.00147922803155    5.70225016892294
N         3.00915700863404    3.00504987864417    7.05666608181077
N         5.86514164223487    0.94741738735487    5.83762333804991
N         3.80027212154355   -1.74089343713797    7.62084032200404
O         1.71334831400991    1.50826094385196    8.14374886669969
O         8.07603787613096    0.69178362932054    7.70599582104258
O         8.44568550312498    1.81739284097173    4.91572103849557
C         2.70560889620945    1.74113706942790    7.48750767207871
C         3.70139435209881    0.74389282733114    7.10481222266168
C         4.84840366510939    0.94306005281714    6.42517932529441
C         3.65365046386135   -0.61039153172661    7.43379948877977
H         2.32530825128239    3.72522136239615    7.21412966111065
H         3.74824053110905    3.17944184087418    6.39938615545431
H         9.03475465029354    0.76450585559184    7.74831779346566
H         7.71981198811127    1.57146594551263    7.86321028331850
H         7.87530139114646    2.21163077245136    4.24989654467016
H         9.34743788779236    1.83929693832365    4.54116997063548
N         9.07968588379979   -0.95062593328516    5.56611152514384
C        10.09812544591476   -0.94399785408239    4.98153168307174
C        11.24676712473211   -0.74271845409928    4.30529091305250
C        12.24472060688348   -1.73818499143734    3.92361786910592
N        11.94039164475397   -3.00354973315822    4.34952301486785
H        12.62520874619498   -3.72288001389489    4.19244707151687
H        11.19840862002218   -3.18048807727117    5.00281962814226
O        13.23933908348631   -1.50269455617047    3.27190640970602
C        11.29466083567573    0.61221440112464    3.97904863672006
N        11.14800680168052    1.74310996284824    3.79384099172849
O         6.86714146702646   -0.69403534180907    3.69864570517337
H         5.90809576087733   -0.76293013685602    3.65786719763838
H         7.21947770592055   -1.57515585850891    3.54099964171568
O         6.49924388085635   -1.81938321841418    6.48973356969617
H         7.07114363958007   -2.21571702529464    7.15304823930513
H         5.59883302078029   -1.83975631765600    6.86761314892101

