72
CSD_code = RUXGUM | q = 1 | S = 0 | Stoichiometry = C38H26N5O2Zn(1+) | MND = 6
Zn       -0.81414787822739   15.84086205892370    3.41424993017996
O        -0.57085034866676   14.77776310180182    1.67752302455632
O         0.96951685643578   16.13036449513644    2.41073444677905
N         0.45712061812117   16.46214664654169   -0.65365496652660
N        -1.50636513398337   17.50394420558756    2.34242152200360
N        -2.85482464270230   15.38698261813922    3.31893888078329
N        -0.10893736734890   14.24702231689373    4.57449306114423
N        -0.36143467965495   16.85754952494201    5.19327196115225
C        -0.80659412478103   16.36614749580840   -1.18928700018975
C        -1.72256635778813   15.32581759509406   -1.11840841669284
H        -1.50342876440439   14.42355191651013   -0.57058285886676
C        -2.93579598724895   15.49228483056464   -1.75772055666687
H        -3.66668151009241   14.69808387241991   -1.71691188056785
C        -3.23584101251874   16.65543628688007   -2.46471168403232
H        -4.18762626524602   16.73557096983273   -2.96799224796532
C        -2.33058657925701   17.69474311325267   -2.53651335820207
H        -2.55816756409463   18.59247508458673   -3.09142303836573
C        -1.11062378825619   17.56075606338704   -1.88536777067023
C         0.02408595521403   18.42407922928197   -1.72342098891312
C         0.31282409041758   19.71285337156919   -2.15550898244247
H        -0.39136234269983   20.25438187465510   -2.76877190619821
C         1.51627057788406   20.27945422651180   -1.78717492224902
H         1.76220423025455   21.27829562044103   -2.11376762700661
C         2.42505794379768   19.57807944478902   -0.99682344083483
H         3.35644891409043   20.04932695211208   -0.72134818732447
C         2.16428248396923   18.29274074806213   -0.56158070941114
H         2.87793554773534   17.76731949347960    0.05418158610641
C         0.95993130564672   17.71325334598777   -0.93455578055462
C         1.11302366916041   15.43352513803019    0.10949560366158
H         2.17818134448193   15.65427471248786    0.17728861061451
H         0.95752536499338   14.46321472832273   -0.37027592967081
C         0.48318742542945   15.42533432879384    1.50291049560348
C        -3.49687702402910   14.34368740319659    3.79811345988436
H        -3.00725234107177   13.80321012370220    4.59599708957457
C        -4.74624245000701   13.93467447039155    3.32533465926610
H        -5.22453607606677   13.06929714019702    3.75527759786778
C        -5.34164726852064   14.64538865656478    2.31071733186781
H        -6.30375502611422   14.35595636995539    1.91491283405958
C        -4.68180377255514   15.76761638900698    1.78245809639957
C        -5.22576547015781   16.56855428342885    0.73766810138554
H        -6.18944907802763   16.29462356334087    0.33610900482426
C        -4.55358510115975   17.64292292358614    0.25826161517236
H        -4.96809234089254   18.24959737083644   -0.53158537671476
C        -3.27937254982225   18.00363927718055    0.78228790758186
C        -2.54221458707348   19.10720747348253    0.32087747791911
H        -2.94829999071830   19.73122647772911   -0.46003568296987
C        -1.31426769737435   19.37579484238935    0.87926627137435
H        -0.71910050990185   20.21093251604719    0.54792350159610
C        -0.82814736415382   18.53542139691020    1.88246330358669
H         0.14517422518747   18.70162487855077    2.32264812303022
C        -2.70876501887423   17.22687009905805    1.81232700544679
C        -3.42159523173881   16.09665927542448    2.32877731117981
C         0.01804082049715   12.98229475177026    4.23606335533939
H        -0.48287966654357   12.68158087870063    3.32645785765171
C         0.75936161673002   12.06894305999009    4.99182860203687
H         0.83236620811980   11.04268960222715    4.66957084079444
C         1.38541828109801   12.50015449466505    6.13704051309092
H         1.96638501668485   11.82331554802995    6.74570994337785
C         1.26755971559958   13.84861468473658    6.51695959886827
C         1.88174490143460   14.38709831591377    7.68473943008548
H         2.46295220207494   13.72382929863193    8.30705130583392
C         1.74218326225108   15.69629234066685    8.00492537902361
H         2.20865753131359   16.10202317344591    8.88968767121093
C         0.98197541203422   16.57751047550471    7.18215948946478
C         0.81845927283047   17.94347435094439    7.46899459896468
H         1.28051367495453   18.36361604259240    8.34987855294952
C         0.07070535534910   18.72043326824021    6.61684191681703
H        -0.07719153682461   19.77145971847841    6.80603309682829
C        -0.50073639450890   18.13222799231683    5.48517603696704
H        -1.09350866888364   18.71998915508868    4.79937409086154
C         0.36000840670613   16.07929775807866    6.01590694517668
C         0.50121728166531   14.69221474805774    5.68369427307089

