47
CSD_code = RUXHOH | q = 1 | S = 0 | Stoichiometry = C18H18CuN2O8(1+) | MND = 4
Cu        0.66285339046023    1.67894024189426    2.76768257127004
O        -1.59881446636914    2.93537974893213    6.36979083983882
O        -0.91585770600794    1.50342585018025    4.77798135796256
C        -2.10488269232305    0.73662548704150    4.93747362901204
H        -1.86864624950766   -0.27758897930795    4.62488190040374
H        -2.90021507214472    1.14823089200315    4.31286927541004
H        -2.42608196482576    0.75508544341513    5.98095598266579
C        -0.79546274801374    2.58493201159561    5.54780811973202
N         1.16636150970334    3.01754168786295    4.18753606396503
C         0.47805609404248    3.32548736688735    5.27745319003991
C         0.88580400372426    4.33019455434176    6.15322520876601
H         0.28347134920480    4.54365604950829    7.02247483453751
C         2.05272744378602    5.02486415302445    5.87444685229406
H         2.39729750975823    5.80602322443524    6.53427548371035
C         2.76631553353198    4.70547000863909    4.72800155907465
H         3.67342816027909    5.22369553894581    4.46231007310753
C         2.27954714144038    3.69229940758503    3.90807542745784
C         2.93815471720384    3.27182046715570    2.64243799839166
O         2.46274262666099    2.40910563977604    1.92024463775349
O         4.05657775000863    3.90669643410801    2.38167633383292
C         4.74009536653741    3.54806793051402    1.18019787978146
H         5.63795239450633    4.15933733523205    1.15211609835843
H         4.10933263668139    3.75006363395119    0.31329592359131
H         4.99590636555491    2.48764665351549    1.19416411028445
O        -0.73356289122038    3.52006804780253    1.93315297510260
O        -2.56561850337871    3.69914099463419    0.64977670343671
C        -2.58613603549838    5.11089953472593    0.85754710926334
H        -3.44298033931688    5.48377497039155    0.30327779912310
H        -1.66301344134389    5.55950078818777    0.48768664060347
H        -2.68858693865664    5.33472674765677    1.92048373126684
C        -1.59367358184663    3.02633844940857    1.23374240474304
N        -0.78437123038344    0.84457755977799    1.67616532220112
C        -1.64637749354652    1.55937774056891    0.95862925870272
C        -2.51141497187004    0.97058101334101    0.04259873827829
H        -3.19749882910660    1.58255909990185   -0.52002403520551
C        -2.46409791241372   -0.40785719010491   -0.12174046976841
H        -3.12119124473394   -0.89576980113155   -0.82455830273452
C        -1.56007675519907   -1.15024428207624    0.62606925534998
H        -1.48857145442175   -2.22120963718745    0.52730616270322
C        -0.73254958831117   -0.47745386191905    1.51807841437834
C         0.29966784550090   -1.12969095752138    2.36778522243164
O         1.07832017631362   -0.47443480748296    3.03998283325932
O         0.28651914034665   -2.44327404890313    2.31905715784034
C         1.27072516124120   -3.12757431072045    3.09582990841497
H         1.10971842135340   -4.18724102370378    2.91781095823653
H         1.14810337977748   -2.89172123266724    4.15390024865922
H         2.27200399282647   -2.83107457422638    2.78036661246489

