110
CSD_code = RUXJAX | q = 0 | S = 0 | Stoichiometry = C44H54N8O3Zn | MND = 5
Zn       -0.10432769391143   13.14153524456751    6.98305671257675
O        -1.06496682134287   13.01188412846859    8.59070113818887
O         0.23741735825782   11.35093595617005    6.67258022791706
O        -2.02980862318446   12.79484164028814    6.05492373418571
H        -2.67732275165628   13.10349420273806    6.69648752940183
H        -2.04634972305265   11.80858853854186    6.17183436116416
N        -1.68151160274688   11.04066737709117   10.26688030914592
N        -2.35951004187168   12.02088923520065   10.79617446298785
N        -3.47149434688377   11.70741220005861   11.42296387469860
N        -2.10425209802037   10.06414254315968    6.44887680836969
N        -1.27226846691044    9.17207217154431    5.96305792560716
N        -1.57639874268419    7.91947050514131    6.15949361290761
N         0.57263334756077   14.96801822593098    7.60016800431448
N         1.09531508363893   13.59016519025741    5.39126695076678
C        -1.16053210934885   13.76840598396954    9.60710591931109
C        -1.89449496478679   13.33955572154885   10.75743550347715
C        -2.15297762582008   14.17136853118807   11.81845627648985
H        -2.74921953935149   13.76882895647743   12.62257271140342
C        -1.65215267640057   15.48077228003877   11.87153840248947
C        -0.88664714863568   15.89935239124767   10.80751722324544
H        -0.45474593958353   16.88844211180830   10.79951686224947
C        -0.61873338255611   15.08722391046730    9.68881648265254
C         0.24308075668483   15.58881210532785    8.67696844895098
H         0.67900483218936   16.57752633040017    8.86908264717952
C         1.56055659876903   15.53893214135668    6.72141701433831
H         2.55250770657613   15.22102272159858    7.06651701982651
H         1.52708903413366   16.63607461953711    6.72544395353429
C         1.34269320815154   14.99947265425650    5.30321187964991
H         0.44984045284047   15.47379585756403    4.87978380048266
H         2.20480162631117   15.23495016386497    4.66536472702313
C         1.56678314849276   12.76896116172801    4.52737173414227
H         2.18695174758457   13.14615289838200    3.70479431689800
C         1.25836552147529   11.37982902641276    4.50911453147670
C         0.43524654852558   10.82286408196951    5.53499650991603
C        -0.17581301835717    9.57541641107833    5.19686746496578
C         0.23845474086951    8.82357615119366    4.12394834761591
H        -0.25244456924146    7.87635453490486    3.96242797312437
C         1.23619598313287    9.28344629889342    3.25279732574322
C         1.66301812138198   10.58443560347551    3.42493488728874
H         2.32195612087045   11.04324191482682    2.70377743737955
C        -2.39920381547381    9.94887219079186   10.55477191637412
C        -2.17780810816679    8.59323697826336   10.28672666655618
H        -1.30405802762410    8.28160974292357    9.73741113129162
C        -3.10771201363566    7.70486861831102   10.75384949799038
H        -2.97354448276398    6.64798953178072   10.57532129274801
C        -4.24857808256245    8.12456839828086   11.46777564302549
H        -4.94755737562061    7.37256862913692   11.80523792912278
C        -4.49029274715121    9.44302091675788   11.74610305082468
H        -5.36020843577631    9.76539018617138   12.29678077565712
C        -3.54905445663542   10.37452150836507   11.29298900113979
C        -1.99854342965070   16.36567643455079   13.05768133318692
C        -1.32615898802676   17.73794247291275   12.98113624515051
H        -1.71002181003294   18.30084123826568   12.13239455380318
H        -0.24836786439877   17.65586395497165   12.88209708438496
H        -1.54623449196052   18.30192677565406   13.88448112269353
C        -3.52039493486386   16.60536819980176   12.99469086300806
H        -4.07034268829150   15.67466205859851   13.10186740134294
H        -3.78946573400463   17.04915252538260   12.03839419068705
H        -3.83126954224337   17.28219424189010   13.78773833332831
C        -1.71331516987909   15.67084355459390   14.41026318568673
H        -2.15094354631660   16.30117169699613   15.18921272436416
H        -2.27921710969254   14.73871451348307   14.41374658687317
C        -0.27511779993562   15.32583540818111   14.86293355809900
C        -0.40810145267558   14.24896888386139   15.95072270828677
H        -0.83643166280422   13.33725268089740   15.54015347608807
H        -1.04765187591897   14.59616473388305   16.75965762632249
H         0.56645364315688   14.00556338600413   16.36819544116430
C         0.43009997178115   16.53115985689653   15.49453174568627
H         0.64800082531470   17.30259922106536   14.76418659413263
H         1.37347668496851   16.21649508195730   15.93685204521521
H        -0.18229154855324   16.96553708027824   16.28197170095394
C         0.59448002370006   14.76101132253118   13.73992893567817
H         0.77518580331188   15.49979482125650   12.96507261218455
H         0.12381348518120   13.89572775431273   13.28072563055700
H         1.55663712393848   14.45143680399573   14.14436587316759
C         1.70026735372883    8.39676756611791    2.10940865516204
C         0.50634483167420    8.22744130550659    1.14880823843679
H         0.14425244632845    9.20146606888333    0.82622725270685
H        -0.31534771015747    7.70235919496478    1.62774528000515
H         0.80624168212720    7.66273609078450    0.26861284654219
C         2.83626571711157    9.03144482115416    1.30406023673114
H         2.47299408372153    9.89491038275534    0.74992945605011
H         3.21986861192253    8.31178743228848    0.58492888270366
H         3.65330210106237    9.35055187747631    1.94363578036036
C         2.07917558403344    6.98104836783936    2.60540924117375
H         1.20537998680639    6.58162853047617    3.12144943694081
H         2.22706043236004    6.36090286713539    1.71697020194042
C         3.29329085189239    6.74171083132888    3.53279250038589
C         3.40597866979459    7.77084418604404    4.65715885231911
H         3.60369896378066    8.76589548955572    4.26986796671334
H         4.22387024325343    7.49701147380557    5.32132552978661
H         2.49065710715912    7.80899769760513    5.24163478050905
C         4.61183781792977    6.69358051203508    2.75308290386974
H         4.88838390682151    7.66684593460162    2.36298297863014
H         4.54249678970892    5.99511626265872    1.92166155780999
H         5.41442169994414    6.35859149115863    3.40750177696023
C         3.08447659748117    5.35964811470016    4.17066912682535
H         3.93673844863355    5.09372281852629    4.79206269777336
H         2.97051122988173    4.59533886379491    3.40454639236674
H         2.19537500348419    5.35556831592249    4.79711440081974
C        -3.05382223925195    9.33715515400242    7.05551197567478
C        -4.21060661152713    9.70716786537240    7.74896343853523
H        -4.45446410124145   10.74669427675855    7.90225669561054
C        -5.00442555800301    8.69654814886821    8.22095557135975
H        -5.90654264770847    8.93673233867660    8.76383548080148
C        -4.67859735510693    7.33969218855068    8.02804366487637
H        -5.34841634837572    6.59101500409577    8.42486602269305
C        -3.54736538980391    6.94987299515874    7.36190252583141
H        -3.29250297107101    5.91229450405848    7.21605909245066
C        -2.71889964571941    7.96172790192373    6.86500502861913

