61
CSD_code = RUXPIL | q = 1 | S = 0 | Stoichiometry = C24H29ClN3O2RuS(1+) | MND = 9
C         4.64884978784407    1.22547853501169    3.20455285460446
C         3.32030439877777    1.56452896975821    2.88122784884767
H         2.66844883819534    1.95209517838419    3.65829332995071
C         2.76143819588431    1.26300272807006    1.61453404353296
H         1.70155292398520    1.41877042647204    1.45428242427088
C         3.54419121808468    0.68878945145322    0.60247967368586
C         4.91330908511896    0.41859545588184    0.89132131579598
H         5.51313543986525   -0.09707285599676    0.14842054328378
C         5.44086513066983    0.66465090971563    2.16964724548861
H         6.45156532569660    0.34215917562377    2.39248106837169
C         5.16195644764217    1.34240788599598    4.61987559638401
H         4.39350937879063    1.84285546824077    5.21979957524913
C         6.44380804258024    2.17286412924241    4.70432196004691
H         7.25281863078678    1.71284189730150    4.14184410554457
H         6.75945237861033    2.25604389179997    5.74065394415083
H         6.27318995695969    3.17730715699992    4.31833635440215
C         5.38024265830441   -0.06120205277765    5.19556610812141
H         4.46700726209141   -0.64837782544289    5.13211304406367
H         5.66945420855959    0.01116672854300    6.24016625903724
H         6.16674399064461   -0.58601041401084    4.65889633730902
C         2.97923970578386    0.34952836252268   -0.73720528996989
H         3.26522226887917   -0.65976182471358   -1.02840750707117
H         3.37974014169395    1.03710423782295   -1.48515607355809
H         1.89562843611585    0.43035970178121   -0.73720866313595
C        10.91451423120738    3.67159977984730    0.92748130454338
H        10.72003828313507    3.66573168833129   -0.14343968966357
H        10.74226774605986    2.67253389078404    1.31832239884525
H        11.94896729132330    3.96027016066405    1.09409723297222
C        10.01806178198368    4.66767263073829    1.59533100142639
C         8.57333675896622    4.40915963781507    1.63739982052638
C         7.71530622532186    3.42775620531367    1.21581093259893
C         8.03531221664505    2.22181827758759    0.40792410837900
H         8.45689097817714    1.42968970962114    1.02494498732556
H         8.75198763045748    2.46401561130163   -0.37106298847434
H         7.11766158345725    1.86852655696859   -0.06171342349072
C         6.26650958966129    4.83152966433650    2.17147214101847
C         2.78968130722226    4.99363031550409    2.10451416097621
H         2.68069713130786    5.88039134209245    2.73185990877011
C         1.58126695017600    4.50056120978013    1.50901704308705
C         0.34915845524135    4.79138275246678    2.12101479999118
H         0.33256046015473    5.33173916204506    3.05556841242918
C        -0.82867097845149    4.37692719608720    1.55711600787876
H        -1.77706311071726    4.58439166482954    2.02547472372066
C        -0.83387655885583    3.69015389475612    0.33142857632512
C         0.38715476525289    3.42649467850535   -0.29866062368674
H         0.41597087404825    2.93555062250758   -1.25825126017207
C         1.57172834452823    3.81806551558012    0.28639744912670
H         2.50298646037957    3.65100928859670   -0.23697173258131
C        -2.14512748439907    2.70977030614313   -1.39700398257064
H        -1.72676239627664    3.32670285782571   -2.19662722357081
H        -3.21140246149975    2.57425329189273   -1.56625292774292
H        -1.65363509090617    1.73267721397715   -1.38902334318694
Cl        4.84109263362151    3.42895433649044   -0.84793277741722
N         6.41892819349782    3.66681842530809    1.56430085409229
N         5.01386429160069    5.21671826086321    2.51553420510935
H         4.84150250196983    6.15538103739566    2.86697986879649
N         3.97699364433186    4.50894943024722    1.95111173299045
O        10.40839406918587    5.68902574187535    2.11494998583890
O        -2.03901286985695    3.35132657514701   -0.14292017410797
S         7.71417178054697    5.70406096511285    2.45264419403705
Ru        4.63847091993238    2.64733478399487    1.35592819746004

