21
CSD_code = RUXPUW | q = 1 | S = 0 | Stoichiometry = C8H6N4O2Rh(1+) | MND = 4
Rh        3.61834812260104    5.77376624348846    1.65486230696852
O         0.74011777035145    5.94750650153449    0.86509267917590
O         2.89360040978576    5.91455494534671    4.55196478455136
N         4.27728585886191    5.66699705935388   -0.25153272799531
N         5.98853811469558    5.51483334734129   -1.62630712478434
H         6.92759971351918    5.44374860739977   -1.98689507025958
N         5.60109498647669    5.64978240365055    2.02125553943277
N         7.64000972087857    5.49047911586141    1.20926958053207
H         8.41657529011529    5.41979888885266    0.56975026416885
C         1.82884053444996    5.88151813508951    1.16803134692773
C         3.16161552676387    5.86306956233475    3.45317700095321
C         6.47394081164306    5.62236844316450    3.06052652946851
H         6.15364099834810    5.67326413284316    4.08246051776714
C         7.74657151038480    5.52329658823639    2.56769840877666
H         8.68983848744134    5.47550108621789    3.07068601489364
C         6.32821360086892    5.56858388705804    0.90445334508523
C         5.60688414356337    5.57870846961282   -0.33401992221720
C         4.85985620444913    5.56443490391154   -2.38875222614420
H         4.88780089209728    5.53054744248712   -3.45791489508174
C         3.80392736905454    5.65885475809470   -1.52372972236773
H         2.75749993365014    5.71878547812041   -1.74907662985147

