21
CSD_code = RUXQAD | q = 1 | S = 0 | Stoichiometry = C8H6N4O2Rh(1+) | MND = 4
Rh        5.13239107322558    4.15557381566538    2.65330250692370
O         2.47061975236942    5.14977103345162    1.72320180760986
O         4.23472131501777    1.31764811883546    2.37221297478498
N         6.97772771337051    3.65058030655582    3.30110910635412
N         8.96065319664843    4.31662266468402    3.98378098020912
H         9.73948049899857    4.90049400873281    4.24728893756293
N         5.89363644314865    6.01142861391300    2.89100052389982
N         7.60999070917626    7.26256486409028    3.46574043957503
H         8.52319546359128    7.55559344740880    3.77734700658608
C         3.47726766373959    4.76822373300263    2.07354824372181
C         4.56996230692731    2.39368511378759    2.47902242050965
C         7.72528378864244    2.55208552554240    3.57883173248271
H         7.34866495425077    1.55512222488463    3.46231969473926
C         8.96191236590426    2.95383238524961    4.00486248985657
H         9.81519611242982    2.38562777040604    4.31169406702658
C         7.74534090078670    4.71347126357902    3.55324436605866
C         7.15500440745008    6.00004457942474    3.32838090430026
C         6.60029459204326    8.10276560510229    3.10211304236319
H         6.70508911599397    9.16754152758647    3.12115991261151
C         5.54001750090216    7.31408278256886    2.74724103862603
H         4.56855012537849    7.61244061551586    2.40579780419074

