89
CSD_code = RUXRAF | q = 1 | S = 0 | Stoichiometry = C43H41MoO2P2(1+) | MND = 9
Mo        1.72594517846088    1.52462110558851   13.14007257121709
P         1.88830426788772    1.16084666757860   10.69548798389222
P         0.77722188401540   -0.69559686725275   12.84627270163349
C        -0.00578574650196    2.65679809706686   14.21312402291707
C         0.07077981718635    3.11301024929852   12.86986189546381
C         1.35676467076150    3.77179805010861   12.70143045805231
C         2.04861295473049    3.69415222248341   13.94097136748349
C         1.23250161323196    2.99052468633283   14.87301750450672
C        -1.19649595483797    2.17610237069190   14.92883246403725
C        -2.42931409454591    2.79897311643587   14.73167463453629
H        -2.51190938757476    3.61685448174594   14.03073861062448
C        -3.54081334084750    2.39048576859142   15.44506695884457
H        -4.48749012220207    2.88216007152259   15.28146987334815
C        -3.44003938861162    1.36644807565910   16.37209300689626
H        -4.30914214523034    1.05073922004914   16.92773259221867
C        -2.21460820627797    0.75974210980261   16.59379007438354
H        -2.12380366340030   -0.02660222134618   17.32768889698279
C        -1.10073980984817    1.16230121031267   15.88133349160166
H        -0.14357281528323    0.69434965376307   16.06949206822200
C        -1.04873037359273    3.06694113041747   11.91346962660646
C        -1.35398883972017    4.13132223360407   11.06649962602289
H        -0.75796273161896    5.02947648346209   11.08590446197601
C        -2.42855139831135    4.05160854868293   10.19730154827282
H        -2.64906901404503    4.88763562374284    9.55145799439036
C        -3.22014261362295    2.91734454277095   10.15714861432700
H        -4.05811802984274    2.86146383567039    9.48028222594213
C        -2.93075964622808    1.85389996279086   10.99806754914950
H        -3.54421782257769    0.96519605704380   10.97938151417774
C        -1.85815703789009    1.92943871093489   11.86370300137166
H        -1.63848908756215    1.09748646364009   12.52088864786476
C         1.74684512447308    4.83902760041739   11.75262036178115
C         1.18650086401035    6.10268530138731   11.94414810529373
H         0.45522842362743    6.24835181992278   12.72772746005233
C         1.57691121754849    7.16597314995305   11.15233243383897
H         1.13362090754640    8.13763183628262   11.30737472900681
C         2.54126758509084    6.99010784650573   10.17311464664810
H         2.84522105297258    7.82221477811208    9.55772444465250
C         3.12645175640981    5.74845411320068   10.00082475577929
H         3.89485160930588    5.60914904351402    9.25562472958675
C         2.73554677868095    4.68301028795457   10.79291113086817
H         3.20837979903870    3.71687586509216   10.68071856982676
C         3.25562389604106    4.46985739062876   14.26842252968634
C         3.17974765777648    5.44167407558074   15.26432420668926
H         2.25111672591154    5.59019307308370   15.79657098897743
C         4.28361997391891    6.21660576816404   15.56560808202367
H         4.21463304945879    6.96483728756408   16.34022981665771
C         5.47129788841113    6.03549437339807   14.87684247727156
H         6.33238122842592    6.64046306042876   15.11497273401091
C         5.55181257726353    5.07449894006979   13.88351128554254
H         6.47617375162721    4.92687996518827   13.34613719159051
C         4.45060848006874    4.29586332237887   13.57912622058041
H         4.52271663055760    3.53338557749622   12.81537374592250
C         1.51894111498020    2.97268138177849   16.31604242212221
C         0.55649310685450    3.39398605816752   17.23228067112970
H        -0.41717618720958    3.70818038164480   16.88568165087615
C         0.85100219081701    3.43355238551778   18.58275248321407
H         0.09635508006778    3.76062223493252   19.28163691253954
C         2.10578997392915    3.06347166611289   19.03560749041678
H         2.33088099834034    3.09247226129993   20.09034948759518
C         3.07514554820143    2.66647704633702   18.12899721371397
H         4.05936912441113    2.38911365977710   18.47362852093520
C         2.78805500436482    2.62574387122845   16.77817973644693
H         3.55305891849452    2.32176632815616   16.07375661288595
C         3.58773226324082    1.03511032192241   12.99675794900905
C         2.13387252689706    0.43830729432004   14.69117540635734
C         1.28715425386012   -0.51851224870336   10.21084956543071
H         0.96549339227167   -0.49310035043289    9.16526052338267
H         2.13021344928029   -1.21182245360961   10.29546997439915
C         0.16611707930799   -0.95089473293019   11.13460275102242
H        -0.10678792569265   -2.00065736988413   10.98615450764518
H        -0.72229018155554   -0.33216100502280   10.98168820924573
C         0.92418624224342    2.16924286264756    9.51185877285518
H        -0.13462945121274    1.93938206430096    9.62881676347128
H         1.24173538065743    1.91381155315802    8.50009711627133
H         1.07380207007774    3.23374887650435    9.67912676000890
C         3.52896017878945    1.07185689009025    9.89374891689805
H         4.04543437219150    2.02856022123307    9.91063761730792
H         3.39767965908098    0.75673151089908    8.85720334478752
H         4.14306308134746    0.34015993949993   10.41937913881608
C        -0.58555018345188   -1.33703796716021   13.86689388319474
H        -0.22590262511548   -1.48268460323853   14.88547781949315
H        -0.90440402268535   -2.29802991096561   13.45924581358834
H        -1.42974377321748   -0.65059493906608   13.88736160517817
C         1.95531058376180   -2.08653875690711   12.99893077761178
H         2.88020811048013   -1.86409017543491   12.46289652959472
H         1.50386607451111   -2.99860641351813   12.60429052664723
H         2.19699626425773   -2.23914892270686   14.05132864466376
O         4.70067905788535    0.75894078266928   13.01686983230549
O         2.41510315528138   -0.21629588013202   15.58696741568210

