42
CSD_code = RUXRUZ | q = 0 | S = 0 | Stoichiometry = C13H21Cl2O4PW | MND = 10
W        -0.13628104351932    2.76601641770498    4.31123951462632
Cl        0.51953354165886    4.25836647467980    2.51608853947798
Cl       -1.59774914521057    4.58182208081316    4.83097828633366
P        -0.44386207219047    2.73010088556417    6.72500289410655
O         0.04686730378297    3.93187898057237    7.67019889820434
O         0.18736789587341    1.53726298911584    7.62366089149252
O        -1.98082014348413    2.47827014961038    7.08074950050889
O         1.54174501526194    3.91797983527231    5.16380660929072
C         0.04633897484826    5.32287005593756    7.35745158625963
H        -0.97261428725979    5.70783801906107    7.31799196700322
H         0.53916874635598    5.50702929390234    6.39994622627448
H         0.60199266412056    5.80532780577528    8.16134819067145
C         1.58741313470054    1.32927772614100    7.66190985233636
H         1.75686880155619    0.48263518837320    8.32619859936076
H         1.96445724651862    1.10366375451994    6.66112551836626
H         2.10050763711402    2.21092481557405    8.04700453371214
C        -2.43486805158414    2.42981418348695    8.43248708710610
H        -3.47754448494783    2.74477557832190    8.42338279387247
H        -1.84985218700357    3.09784945175295    9.06496494207727
H        -2.35342647568075    1.41107795509070    8.81207190493908
C         1.81649646027429    2.78578768496822    4.68355819648154
C         3.22467293442772    2.36414159302958    4.40039759752316
H         3.31175635944945    1.27512055366643    4.39638787520780
H         3.40985456126274    2.71568399773813    3.37541480839407
C         4.23166859986208    2.99638696400109    5.33850899096972
H         4.01816148639519    4.04056018118039    5.53069155669027
C         4.83672678604663    2.19948582049711    6.45352965308460
H         4.55610882599011    1.16143072586924    6.55499191945720
H         5.02266816424468    2.68843263362924    7.39735554976138
C         5.67077073810112    2.58670007097940    5.26948579162128
H         6.42887552007843    3.34369118162896    5.39635423788063
H         5.94487252495890    1.81264818690483    4.56883044193381
C        -0.63888966532498    1.53332980939049    2.30802272322608
H        -0.44589619378807    1.81704716150287    1.28198399435305
C        -1.82114991462346    1.81227391500832    3.03040582365501
H        -2.70101405587208    2.30080139343580    2.62974382817076
C        -1.72490824360777    1.18449982035003    4.30609732836529
H        -2.54861856858989    1.01886558795972    4.98895248056140
C        -0.43685809603948    0.53565114073774    4.37008502159622
H        -0.15056091284676   -0.20650617597430    5.10492308587137
C         0.22148136781046    0.76632682523899    3.12235684043105
H         1.14493825088939    0.30905928698373    2.79811391874276

