109
CSD_code = RUXSIO | q = 0 | S = 0 | Stoichiometry = C41H61N3PSScSi | MND = 5
Sc        1.30719753398022   12.03174755519741    6.87879994626737
S         1.02659612390766   13.28215303181384    4.62442134202939
P         0.75030165552256   11.36255999192534    4.10320842928514
Si        0.87520577863899    8.53603106981913    5.54918490498260
N         3.34686494062366   12.62731367385286    7.44322863037152
N         1.02205910102403   11.54117113002145    8.89609209356301
N        -1.13032851343901   13.05578013289698    7.66530589229244
C         5.24224699817802   13.07191638720386    8.96476297218297
H         5.85524955118168   13.06628532732606    8.06754477150432
H         5.69879844146979   12.42577181832801    9.71135656513854
H         5.22651420901327   14.08385564948001    9.36858153837697
C         3.82165054622521   12.62888097161161    8.67677551063077
C         3.09503281002641   12.26280642243877    9.81378062057115
H         3.64148044193789   12.35962002097139   10.74096123073279
C         1.79602105480088   11.76219577805126    9.93647501758238
C         1.34170095651356   11.46338337274431   11.35114789466523
H         0.44227849423186   12.02374832554540   11.60364140781690
H         2.11826100275541   11.72723241078676   12.06248886685831
H         1.12614568235681   10.40110964511876   11.46173004671809
C        -0.35757093487707   11.13463564612455    9.08584478911887
H        -0.54195653034290   10.66690528133980   10.05950831599697
H        -0.59796556012345   10.40165050025919    8.30792958613154
C        -1.28431714421309   12.35935449302402    8.95711847310163
H        -2.31544917114378   12.02729994470758    9.10740412137702
H        -1.04646695663001   13.04338884450522    9.77758967861844
C        -0.90679516894190   14.50967925457735    7.88454059472569
H        -1.59704438049732   14.87713553178511    8.66590141768199
C        -1.09816648047600   15.36986181434181    6.63344803974753
H        -0.49477323645475   14.98616866491625    5.81272102030798
H        -0.76875462592071   16.38297393376942    6.85364893070990
H        -2.13398618880552   15.42688808858095    6.31440850912097
C         0.53564311323236   14.71522853786214    8.35514118706065
H         0.74447610197567   14.20595451199753    9.29510252690284
H         0.73539145850201   15.77617914627932    8.49488666432967
H         1.20708536818976   14.32198738749998    7.56656261641303
C        -2.28037828709496   12.78325907466249    6.76948544501621
H        -2.04532586443900   13.27712146583369    5.82222749888358
C        -2.40738180496664   11.29402061996382    6.46146767473399
H        -1.43505481140561   10.89984109797631    6.14279398707776
H        -3.11555719160781   11.15913556894903    5.64700034398383
H        -2.76654014494628   10.72763810546831    7.31782776559681
C        -3.63369698617625   13.30996523930800    7.27437043301757
H        -4.00629175463959   12.72581090106972    8.11319531442208
H        -4.36052879603174   13.22951125401856    6.46998969713587
H        -3.58348034806918   14.35060058881866    7.58133074946311
C         4.23553716797055   12.95008885149694    6.37727694813752
C         4.83688099245874   11.90173515620908    5.65374135759408
C         5.71426644427366   12.21580690526576    4.62612597824367
H         6.19927563580809   11.42685952977394    4.07466450370599
C         5.97511170134700   13.52999040814309    4.28498808817711
H         6.65352119186474   13.75466140311597    3.47486145256993
C         5.36563724147752   14.55275929260046    4.98280918468636
H         5.56771998437015   15.57619300355772    4.70605647180630
C         4.51248501825344   14.28635524036969    6.04440442271858
C         3.90034267809344   15.43959343558445    6.80886715103661
H         3.36343999881754   15.03613562246902    7.67449414200035
C         2.90452484225454   16.19289839281300    5.92261865730867
H         2.39034928091527   16.96156328005367    6.49645569756671
H         2.16892682542974   15.50821837589482    5.50459595089218
H         3.42087349807365   16.67364150630564    5.09528547633478
C         4.97226726463299   16.40246210368035    7.32902199189251
H         5.44894795309472   16.93547857936649    6.51044660777061
H         5.74347003451813   15.86844763177113    7.87921967170496
H         4.52066311120299   17.13849281903505    7.99164145834392
C         4.52840860216353   10.46145836499098    6.00598934096456
H         3.45272907348637   10.41136678990515    6.28712867991160
C         4.75118716319865    9.49559427443323    4.84267257011857
H         5.81159158715282    9.36352654684933    4.63595595974914
H         4.25634549359755    9.85193152118041    3.94242348133014
H         4.33779861483482    8.52289609785205    5.09693625650667
C         5.36478577806409   10.00240543597414    7.20589927872894
H         6.42356410652045   10.17199608437872    7.01440812935303
H         5.21219785563064    8.93935094068485    7.37907918763857
H         5.08091906775698   10.53481780527618    8.10831903396477
C         0.81241452096567   10.39854532296534    5.53705327995436
C         1.56974602516125    7.54174084216456    4.06289869135056
H         1.91417253375245    6.56047569940610    4.37707102946092
H         2.40243152590190    8.05018016339167    3.58729715117218
H         0.80678141809164    7.39191582738442    3.30478098117349
C        -0.83651433020701    7.70574563025084    5.90046901478401
H        -1.44991237468892    7.60900607471709    5.00910328906447
H        -1.41208635960630    8.26043957412214    6.63676344979600
H        -0.68788808243397    6.70349125555694    6.29145237927836
C         1.90477490769891    8.10906086628764    7.12328956099551
H         1.45023394261182    7.29426901567579    7.67764714703897
H         1.96797221678300    8.97241047152068    7.79043739445171
H         2.91682032799341    7.80425889941921    6.87843520373008
C         1.89289697029061   11.04619835469768    2.69868109566160
C         1.59467409574906   10.03777579899397    1.78837462203521
H         0.65791231348222    9.50425818242052    1.87658807204115
C         2.48414330748915    9.73701965162287    0.77509685775492
H         2.24935391844766    8.95492106251012    0.06704278188006
C         3.67480016225718   10.43906117251977    0.66389596133828
H         4.36716093561352   10.20310506489493   -0.13131691036627
C         3.97227476866321   11.44596754568928    1.56746174798209
H         4.89465428315069   12.00159348709710    1.48002353235865
C         3.08754281302236   11.74520946693914    2.58751482551267
H         3.30695684261727   12.53724562218051    3.29131439458328
C        -0.82715871285256   11.34420447559746    3.14717719934760
C        -1.74414108308168   10.31510111443650    3.29294164411073
H        -1.52191636250266    9.50962679636514    3.97640959945794
C        -2.92051114080639   10.32805020235404    2.56415553092815
H        -3.63196771918451    9.52141699100618    2.67420603642219
C        -3.18687629462587   11.37345907382233    1.69548814743651
H        -4.10818560912729   11.38493544992646    1.13094363969911
C        -2.27207973041429   12.40463278517547    1.55021944549732
H        -2.47932240572862   13.22039894155055    0.87243881843795
C        -1.09323875188444   12.38949661414023    2.27108788077515
H        -0.37037756292087   13.18789889135826    2.16863631185088

