57
CSD_code = RUXSEK | q = 0 | S = 0 | Stoichiometry = C32H21MnO3 | MND = 8
Mn        9.57063711560125   13.99875367824990   11.65197411463091
O         8.56532168292400   15.21251736774324    9.17651825415043
O         9.92511027234204   11.30976368732153   10.54883842196238
O        12.37095144753074   14.76175259888111   11.22490223900843
C         8.08666482900171   13.20747789183603   12.97564835696236
H         7.43167195584232   12.35034214907208   12.87805264832323
C         7.72222598812071   14.54635371971429   12.66947990669642
C         8.77390673191016   15.39825085191097   13.14710372506495
C         9.75807733395732   14.57225063749698   13.78406423765136
C         9.33539371297197   13.21030851053569   13.66417581119918
C         8.98404211983046   14.73732178586808   10.13665151910257
C         9.80661672822696   12.38361394616447   10.93805913057396
C        11.26660505811716   14.47527110560156   11.36983901302760
C         6.39928074170054   14.95666547043443   12.17664673605201
C         5.79675772833441   14.27419360974205   11.12102450928291
H         6.33211309521196   13.47061007913535   10.63105632850584
C         4.53887412935373   14.63660026652404   10.68023464957830
H         4.08728430135097   14.10511613596127    9.85574367540304
C         3.86253564968995   15.68143619052451   11.28841318669855
H         2.88105029186326   15.96705226835787   10.94052281915279
C         4.44982341964708   16.35805116547796   12.34367810590363
H         3.92601943529414   17.17039715826347   12.82576575181294
C         5.70863164964549   15.99981054253071   12.78920489592212
H         6.15357578973269   16.52521304656321   13.62173082773323
C         8.69347214298301   16.86471933832156   13.25816716040195
C         8.80158786416790   17.46551768300134   14.51112450594312
H         8.95997035895413   16.85357165836541   15.38838769952415
C         8.69304626580035   18.83763994486928   14.63738787405175
H         8.77821378322013   19.29153586859486   15.61385406254912
C         8.47310310070405   19.62582245044706   13.52034644021228
H         8.38928253986780   20.69756086737831   13.62219259047983
C         8.36170327070032   19.03512777680476   12.27260656603700
H         8.19169506695062   19.64419309914015   11.39722447878614
C         8.47195083840493   17.66409248737839   12.14000200504552
H         8.39797164714612   17.20502222545362   11.16331578816969
C        10.85767931810011   15.08008141508569   14.61680966694213
C        11.65670910421904   16.13973843513164   14.18997768921339
H        11.49840859115235   16.56991341754815   13.21052228582759
C        12.65637152240252   16.63373243743571   15.00516601143529
H        13.27147566422197   17.45092677661308   14.65891157547090
C        12.87182276669810   16.08284303017749   16.25760866324440
H        13.65632508531540   16.46772399487178   16.89189534662514
C        12.07514669072754   15.03813583687637   16.69432100146446
H        12.23133082933992   14.60830875307632   17.67284126633841
C        11.07271101240765   14.53980316941106   15.88366986225406
H        10.44490218080444   13.73491420343748   16.23916386771101
C         9.95989384573254   12.04383300355500   14.30453285421395
C         9.17210284094397   11.13344440062444   15.00502963682255
H         8.10399191143313   11.28897076214510   15.07241484506694
C         9.75191021076678   10.04434177839891   15.62912768728220
H         9.13142733204969    9.34645037558386   16.17193107946362
C        11.12070449987673    9.84960835441483   15.56050953699500
H        11.57076517511988    8.99781210963753   16.04817746268001
C        11.91015750614684   10.74729574988153   14.85967953129570
H        12.97742801065674   10.59539222544161   14.79616746702996
C        11.33655051925183   11.83612710654837   14.23365954086555
H        11.95111729553087   12.52657540043778   13.67054508615723

