119
CSD_code = RUYDEU | q = 0 | S = 0 | Stoichiometry = C52H50MoO4P2S10 | MND = 6
Mo        3.21405556526137   -2.16625962407468    5.97456075942885
P         1.14686895411755   -2.42806667715271    4.77541690483514
P         3.96768470410743   -4.45682176925968    5.75198306898190
S         0.88817426653549    2.47272227233475    2.53066507783010
S        -1.81989158867170    1.67864940113384    3.62165604676962
S        -1.29856057700215    2.92900934549600    6.25498733464453
S        -4.90594026913711    1.16804404918680    4.46338610935534
S        -4.39789250078054    2.42498269861727    7.09476117925594
S         4.40420393491757   -5.01652862948800    0.26413910147620
S         1.43789338269247   -4.65492894459222   -0.18643996310336
S         1.66170370874179   -1.72473673858998   -0.47613557399117
S        -1.71590235978949   -4.34111703802024    0.57242283016182
S        -1.49978620024337   -1.41886702539690    0.27990972251249
O         5.72274839475557   -1.60503947549138    7.68147445756930
O         1.75712134612419   -2.94218398726466    8.59721046289010
O         2.69029187605835    0.83522464258161    6.44871338150687
O         4.62286027344900   -1.33948572452793    3.34385357348089
C         4.82043654660388   -1.84760055118728    7.02182923344921
C         2.28453868681218   -2.66800808248708    7.62219369934771
C         2.81683157214239   -0.28689117466263    6.25847420152776
C         4.11428683206059   -1.67500213568442    4.31397373667993
C         0.52344408914785   -4.11116078962132    4.48377600715889
C         0.43654403730528   -4.71253105224120    3.23594557325956
H         0.73904711905199   -4.17276977733185    2.35304881912069
C        -0.03432710464594   -6.00985398605195    3.11914974319581
H        -0.10134668437753   -6.46543507582326    2.14179877558917
C        -0.42664928840231   -6.71101494688408    4.24647776128173
H        -0.79977124291291   -7.72028737687917    4.15209095926277
C        -0.33799466185789   -6.11718940845563    5.49759121192489
H        -0.64145138093249   -6.66242094831285    6.37961788564042
C         0.14220543084719   -4.82753514155491    5.61706896134485
H         0.22244769506855   -4.35984086509296    6.59202670233913
C        -0.39377447931505   -1.75550694069496    5.49209236579202
C        -0.38190296532152   -0.97652295831501    6.64140270877824
H         0.55998486482939   -0.73017199654867    7.11396390642070
C        -1.56915657206968   -0.52332556827435    7.19175052133149
H        -1.55113151518034    0.08102326779670    8.08668136463011
C        -2.77648780717208   -0.84814058760506    6.59898167890758
H        -3.70281916280541   -0.51740197860480    7.04466641898534
C        -2.79642866672495   -1.60360747597723    5.43708555972748
H        -3.73760832427420   -1.84525904885339    4.96472437237679
C        -1.61362397912398   -2.05537872752738    4.88633001865090
H        -1.63686818958693   -2.66089177683784    3.98949593675941
C         3.50276204785579   -5.49185611974873    7.17050736529704
C         4.01187689713230   -5.08808655224598    8.40467430447728
H         4.68288113871068   -4.23672030834470    8.44615750746687
C         3.67409238644149   -5.76601326198589    9.55856400212775
H         4.07583121259576   -5.44741657626857   10.50906809539863
C         2.81350092485383   -6.85168620349342    9.49522442605974
H         2.54167911368198   -7.37946739340073   10.39730195179432
C         2.30341819459769   -7.25636157258829    8.27449884371258
H         1.63448557339603   -8.10356021627979    8.22235156391344
C         2.64535639524710   -6.58320474014810    7.11304679487060
H         2.23740043613748   -6.91250913474845    6.16878554098172
C         5.77835565379624   -4.69263817883736    5.78683651081095
C         6.63265141699715   -3.69533976789831    5.33352422740052
H         6.22620032242191   -2.75318912011214    4.99094266287310
C         8.00222611600552   -3.89640180552702    5.32331218650896
H         8.65630480030246   -3.11252080628356    4.97097005241003
C         8.53138686109678   -5.09568334800496    5.76723580203848
H         9.60015939979312   -5.24974465857434    5.76673058403165
C         7.68588436389343   -6.09898107021575    6.21342355926253
H         8.09459466689631   -7.03731439815061    6.55937868831818
C         6.31813949983614   -5.90283506386139    6.21817204394077
H         5.66266268842092   -6.68850855343069    6.57094650225700
C         1.06248632894110   -1.62618777048817    3.12280021406584
H         1.83160911221791   -2.04404952798360    2.46715447905833
H         0.07761861820616   -1.80162467167264    2.67781207696191
C         1.28186456936383   -0.13077243587398    3.32947522586824
H         2.33047499316284    0.07569364554385    3.55805850394375
H         0.68876790742575    0.18486819882509    4.19632786508376
C         0.85898291796370    0.69216402836661    2.12740807675453
H        -0.15446142096901    0.44834099409981    1.80675238046701
H         1.53865005266369    0.57512496558925    1.28528841445826
C        -0.24525861671414    2.45564412908562    3.87444963685926
C        -0.00217546266261    3.01002367757123    5.06735413718011
C         1.25557812275112    3.68024203926911    5.48882269453958
H         1.61977706147254    3.23276651651721    6.41236347321096
H         1.07711362256562    4.73966321955874    5.66849838868358
H         2.00935066665085    3.57355369010527    4.71302039118618
C        -2.46536001796028    2.15987660351485    5.18300897915893
C        -3.74717953440007    1.95523376396881    5.52804720307902
C        -6.28508883554049    1.37554105085408    5.54207048266244
C        -6.05378212257967    1.93955115630872    6.73156793661048
C        -7.61693681949939    0.90656225046335    5.05659085935407
H        -7.52762037388203    0.51092899440004    4.04882853774210
H        -8.32995339972732    1.72995259680003    5.04846015509928
H        -8.00906659975763    0.12502365695554    5.70734257891386
C        -7.09002019989451    2.20425068699053    7.77243506912265
H        -6.61397204107550    2.43769022224746    8.72083951712339
H        -7.73386195669983    1.33579416692438    7.90102184277287
H        -7.71319836621707    3.05000849159444    7.48130440442399
C         3.62178630210930   -5.56461247133695    4.31353703326805
H         4.19370944291011   -6.49005259856408    4.44964725523335
H         2.55607137672799   -5.80296996618023    4.28433186749380
C         4.02831704775117   -4.86943157074981    3.01861309242403
H         3.39649950336051   -3.98599788415921    2.87395792553032
H         5.06800721031008   -4.53332194515204    3.08536036989295
C         3.88054623521626   -5.80454374413887    1.83087000181677
H         2.85046903559060   -6.13971763355535    1.70545045096253
H         4.53333406655606   -6.67149836108336    1.93128709168381
C         3.04964244946058   -3.92914118614522   -0.00147843017797
C         3.15861095786288   -2.60306885575795   -0.14382926988805
C         4.40494188390680   -1.79969310102034   -0.04682540906153
H         4.56210841609836   -1.24125348720938   -0.96837422524812
H         5.25621701292795   -2.45325330850781    0.12476056796735
H         4.32851494880826   -1.08551824905267    0.77268374290275
C         0.61325559177459   -3.10164962036379   -0.13663734617285
C        -0.68707487597773   -2.97378061806410    0.17671269339758
C        -2.98218877956220   -3.35974855650628    1.33001252310225
C        -2.88872754162865   -2.03523109613884    1.19298025810527
C        -3.80483953782984   -0.98714598313994    1.72150453987901
H        -3.35682035026034   -0.49579837464693    2.58554256855717
H        -4.76144806894595   -1.40680765607677    2.01792202769279
H        -3.97274474815163   -0.22678212805056    0.96117525974196
C        -4.02563867937896   -4.13526112946448    2.05970434633624
H        -4.33880603757054   -4.98742575232943    1.45896137702891
H        -4.89244024254537   -3.51904193175875    2.27961303936520
H        -3.61894869560411   -4.51724995242976    2.99695731063374

