75
CSD_code = RUYFOI | q = 0 | S = 0 | Stoichiometry = C30H40MoN2P2 | MND = 9
Mo        7.68571830051205    3.09525483986282    2.93070395676052
P         6.71164891942519    0.93037644460742    3.19328093730110
P         6.17418189522082    4.79464974060218    2.20850889704915
C         9.47574714344181    1.81260620383293    2.64062807596102
C         9.10952659170510    4.52604917212607    1.99160862632477
C         8.93676854583276    3.51681329755371    0.98966229891489
H         8.69442143725752    3.82280149221441   -0.02300511485983
C         9.12325641032982    2.18802861623624    1.30504715801095
H         9.03338686376300    1.41431803257252    0.54950253484963
C         7.29320818949041    6.12706561663472    1.59816293411856
C         9.86824093902327    2.80789646786911    3.55076000566135
H        10.27873991040443    2.53197216216181    4.51619261081948
C         8.17246335049500   -0.19547607507285    3.21181808811312
C         9.68326930778188    4.17351118176125    3.22344018021710
H         9.95192574500200    4.94348541480143    3.93915357202086
C         8.67246741280362    5.88612590657719    1.63169197875914
C         9.56669108705630    6.88311504275612    1.26473704386509
H        10.62943785034260    6.68321141620068    1.29773247656019
C         8.11266444954301   -1.54895617029360    3.53177095933310
H         7.16728833705434   -2.01031179424011    3.76976917557312
C         6.84155613672899    7.36964842260710    1.16464342739730
H         5.78192531328008    7.57695841746195    1.12508559736221
C        10.57925268387974   -0.39790310821608    3.02725240332608
H        11.53988765809247    0.06196967389123    2.83646426719234
C         7.73749302204736    8.35740332833357    0.79595866834956
H         7.37188317712846    9.32003539559451    0.46886289554740
C         9.10073032001864    8.11996669182653    0.85717530591090
H         9.79966993708767    8.89511607598932    0.57935300986067
C         9.26301486742327   -2.31711196643792    3.58386572632741
H         9.19514930116404   -3.36559831214399    3.83602577738827
C         9.42939623199468    0.37781004846948    2.97208104200095
C        10.49781395665801   -1.74536685734450    3.32940119739820
H        11.39553236513088   -2.34439116677383    3.37363295447933
C         5.13822332340242    5.81751476948630    3.38216889800562
H         4.51386660127393    6.47396188469780    2.75916208765795
C         5.85636091689392    0.34475006485635    4.74016705193495
H         5.58861181770648   -0.70921662056675    4.59648267443214
C         4.58506908508928    1.15758135351680    4.95096464316678
H         4.08491646758635    0.84594181214150    5.86658607218083
H         3.89286489040227    1.02952075727381    4.12053567873050
H         4.83620866351775    2.21216938423174    5.03315822149745
C         5.02567274846288    4.71200555663514    0.73204010315263
H         4.58284176342774    5.70659180705434    0.59745832859017
C         5.24258164249774   -1.29097787411382    1.94049255608584
H         4.54591363345437   -1.51363282862065    1.13217129374168
H         4.75216262800514   -1.54965943694367    2.87544028885533
H         6.11821634070102   -1.92136499240487    1.80569333780827
C         6.77941752468964    0.44324355068020    5.95136360736538
H         7.02953186290244    1.47921266272060    6.16272488050275
H         7.70175680346470   -0.11234369625601    5.78903648313591
H         6.28104237762812    0.03036736618305    6.82766604062281
C         5.61456615331706    0.18631007423000    1.86787930288106
H         4.69462495529781    0.78029452141409    1.95939282078117
C         5.82464101281034    4.36671713075632   -0.51835536845654
H         6.31441809167175    3.40314956851438   -0.39580262682610
H         6.58078883754733    5.12511107907963   -0.71880988225543
H         5.16632645366927    4.30412295251658   -1.38409018195483
C         6.24794738567824    0.48869525387198    0.51711045169114
H         7.12150394424123   -0.14364787932601    0.36017396470935
H         6.55470088485653    1.53289504719294    0.48847886913747
H         5.54406901958514    0.30864734960700   -0.29388355871733
C         4.22855037907138    4.93247817693838    4.23210459421973
H         4.79056466835191    4.51996823737843    5.06580270664353
H         3.82112665799114    4.10695551995071    3.65423793853743
H         3.40475013229819    5.51967429492540    4.63590966218945
C         6.01854449386707    6.67513383223196    4.28878377000918
H         5.39997245077754    7.16877784888936    5.03682931691506
H         6.55441355559138    7.43875198687742    3.72929663017432
H         6.74382239386164    6.05175952780800    4.80826258489878
C         3.92531308653896    3.68565454948505    0.97285996131820
H         3.49126721401173    3.35963735502360    0.02892767074397
H         3.12818215711382    4.09755214270228    1.58643762720020
H         4.34890362608866    2.81974233958426    1.48169108245927
N         7.12942761385106    3.47025736718287    4.63353508778122
N         6.94815808368649    3.73842255057409    5.70734666055809

