79
CSD_code = RUYFAU | q = 0 | S = 0 | Stoichiometry = C33H40MoO3P2 | MND = 7
Mo        0.69119449004994    6.54595796708310   12.76087084289686
P        -0.94177502632710    4.70128826988939   12.79245171285114
P         2.46803071222302    8.24869669295112   12.87041195818700
O        -1.52233099797118    8.68287007921918   13.05757697257496
O         0.60414660728366    6.58321708119750   15.82702674703435
O         2.89488794879766    4.40554105308956   12.38903649374708
C        -1.43470874860055    3.81795955081126   11.25054724312619
C        -2.42253462888875    2.83378286025840   11.27259740913481
C        -2.70197234534808    2.07370643439760   10.15277344610091
C        -1.97296339575123    2.25662384094545    8.98817508116800
C        -0.98125304542472    3.21565646973738    8.95010385204615
C        -0.71497907261571    4.00676867920968   10.06498877113103
C         0.30539109821394    5.05591660741482   10.00571490157640
C         1.57713137373459    4.81772031433286    9.53621285458718
C         2.53605136869592    5.83441670863571    9.55605653013274
C         2.21459458854224    7.07978417972105   10.04582745262033
C         3.20122295688106    8.15803708623075   10.14753017265024
C         3.98416797123638    8.50659258895574    9.05002777231594
C         4.88409449233000    9.54997427197438    9.13102810759879
C         5.01653644629195   10.24683537109671   10.32176175758611
C         4.26490182793169    9.88649548270701   11.42418460165645
C         3.33786861124286    8.84687836129265   11.35815057207210
C         0.89945030856311    7.35920715004045   10.49193561998843
C        -0.05948277998783    6.34353217035729   10.47102246846420
C        -2.64780452971728    5.06357963569330   13.46351099730413
C        -2.59710420094546    5.77253731561276   14.81034540509778
C        -3.44030827695330    5.88475732741098   12.44893795372906
C        -0.49292726768010    3.16169314656794   13.77138267652774
C         0.26487505481570    3.49728702684517   15.04949885820088
C         0.34185901218788    2.18968550408857   12.93554398415721
C         2.04162323073398    9.90552493952645   13.62307142309237
C         1.30885881569971    9.76634799992856   14.95074517153216
C         1.21420885841831   10.72767428388982   12.63727640674299
C         4.02306764090014    7.80726833373720   13.82716436744145
C         3.71662994932180    6.98297150298733   15.07101354737551
C         5.01507698117850    7.04216582032167   12.94903713810861
C        -0.70050640779513    7.88825229259381   12.93877594868268
C         0.69270591759284    6.51272393942853   14.68187123777895
C         2.07975680972162    5.20223175351269   12.51998100689651
H        -2.98457898810272    2.64558553979296   12.17501798069855
H        -3.48194133955314    1.32729389907708   10.19234807784190
H        -2.18031065395660    1.65381765823434    8.11647533717491
H        -0.41093362139636    3.37680452818919    8.04642072992726
H         1.84642580337461    3.83197111735676    9.18464763250042
H         3.54238539735067    5.63102192974412    9.21866278284841
H         3.86353182973316    7.95856201547546    8.12643848895926
H         5.48029635143158    9.82181780296258    8.27261406522120
H         5.71708143331196   11.06592917909727   10.39522623553680
H         4.41389171016048   10.42686305459356   12.34686733417291
H         0.59353608438308    8.40323935438045   10.52407868541925
H        -1.11959625885699    6.58904303026092   10.48358896349215
H        -3.15730942537479    4.10178427625154   13.60727312090481
H        -1.99155245832594    6.67458025958800   14.75190151469339
H        -2.17930190913783    5.12867846527857   15.58061346139827
H        -3.60337632791499    6.05636360258456   15.11702099801005
H        -4.45541048327720    6.04473569179523   12.81046029038737
H        -3.49725874544701    5.37470484745115   11.48756384526473
H        -2.98372838305681    6.85962593564450   12.29950367014224
H        -1.43919120517749    2.67217445651857   14.04270547534343
H         0.44555170569028    2.58688261936816   15.62067299613637
H        -0.28745694561354    4.18789803049952   15.68043058032274
H         1.22785789360235    3.94576377301618   14.80902097036181
H         1.20387514851630    2.69202203992485   12.50442563303653
H        -0.23498066311577    1.74662190655724   12.12724417444172
H         0.70587147579429    1.38351370977613   13.57129596221609
H         2.98558274534442   10.43273119611652   13.81440963446784
H         1.02853832427255   10.75159087970964   15.32228957604151
H         1.93440893770821    9.28886176654544   15.70102088035212
H         0.40240910719047    9.17643935019875   14.83432505269179
H         0.26035019683565   10.24614713171125   12.43876921278136
H         1.74044257105055   10.86004249389995   11.69251499844249
H         1.00921991451573   11.71284477922267   13.05453981859321
H         4.48451963146128    8.75535636824152   14.13832564356450
H         3.29008102967978    6.02119163300796   14.78973047437547
H         3.01754706346473    7.48788662709864   15.73173746579163
H         4.63570288431938    6.79941393115863   15.62718393076312
H         5.82941208568461    6.66221253344881   13.56464367746709
H         5.44457495784941    7.67327227344390   12.17455585760031
H         4.53285077700471    6.19405021906463   12.46956530669451

