91
CSD_code = RUYMUT | q = 0 | S = 0 | Stoichiometry = C27H58ClNNiOP2 | MND = 4
Ni        7.94013386267815    3.17644721179162    3.19798313580686
P         9.39579361798704    3.87175925012239    1.70291608038404
Cl        7.09357315054727    1.53448112814434    2.11123977184665
O         7.91081302747297    4.13999175948987    4.71568216318822
N         7.00233494481173    3.20002504804279    4.77305017734455
C        11.03251534063711    2.90579430326326    1.79627358565842
C         7.30240528056484    2.11364481458784    5.74301488508875
C        12.10758286184326    3.35533236764703    0.81126148049219
H        12.96308367548478    2.68472835900753    0.89019955570527
H        12.45640667510958    4.36238867226062    1.02332100017898
H        11.74678514927048    3.31593365165560   -0.21376239906556
C         5.60023542280879    3.68949489125921    4.67805821462723
C         9.73273755345503    5.74723049507590    1.72153172863315
C        10.67915871685699    1.43982739135335    1.50728696774851
H        11.47006666684839    0.78528857467347    1.87000519325033
H        10.56591340465135    1.25598960459048    0.44217714819362
H         9.75076283555105    1.15743844917225    2.00401511056314
C        11.55758236668309    2.98980627057134    3.23408669567677
H        12.20331141096211    2.14064419535849    3.45341402128639
H        10.72243383047496    2.97419696076767    3.93477245068595
H        12.13300794920498    3.89346351975644    3.40568909502388
C         8.41025179937132    6.39825086717465    2.14025924537424
H         8.51743107525643    7.48217447314985    2.17428091979087
H         8.13883982691253    6.04726243390711    3.13451056351200
H         7.60253437299819    6.16073398971464    1.45188201732783
C         4.84656101419090    1.45629967779299    5.64047059059196
H         4.17555510857719    0.61354544514485    5.46631562199355
H         4.60657686116751    1.86361092782179    6.62465162530836
C         8.70069733507063    1.56888615219189    5.41215702183850
H         8.79148802841683    1.35843289513100    4.33611786925023
H         8.86758542872896    0.63732134546394    5.94767204424912
H         9.46686224073829    2.28295906470137    5.70967892498011
C         8.89656700972453    3.53051767491871   -0.04546125550964
H         9.59167526399799    4.01282899720025   -0.73529590296288
H         8.98051862771148    2.45247438932736   -0.16520290166103
C        10.75170299663028    6.09818820295300    2.80472790750040
H        10.74445018907125    7.17463325954102    2.97635024255285
H        11.76107627377812    5.81853744192952    2.51750412381465
H        10.48790746653252    5.60678528856306    3.73916763322275
C         4.64041817813247    2.50038260287692    4.55302565953019
H         3.61692041258314    2.87930393132384    4.57517518263416
H         4.80746000162676    2.02440988075151    3.58344730746904
C        10.18230252277532    6.31913786940521    0.37931082067466
H        10.40755801163242    7.37849897803683    0.50280628311578
H         9.40370215403756    6.23351465494006   -0.37413619775207
H        11.07840666154191    5.82940802835152    0.00904643737895
C         6.28877607205943    0.97443500031144    5.58670539798362
H         6.45494674496670    0.49516550614170    4.61869110953020
H         6.47631272917208    0.23590048744292    6.36835036446213
C         7.35469632081938    2.65301840908844    7.17874706258223
H         6.37065182689129    2.76310797413943    7.62096978179825
H         7.85976666156364    3.61679423836136    7.18993732772543
H         7.92165526309363    1.96074907757440    7.79739603308549
C         5.24889475015902    4.59816416623920    5.86346846901228
H         6.08963119174373    5.25222061256716    6.08598431991771
H         4.98793114519825    4.04068470334281    6.75626623464340
H         4.39431573625667    5.21557710367840    5.59520324500352
C         5.48303691794159    4.54213848813060    3.40290548284253
H         5.93490128478029    5.52040234367081    3.55103050768448
H         4.43382442094649    4.67815720807704    3.15109696026963
H         5.97338330329962    4.04315366770370    2.55219055450949
C         7.46061572627323    3.94361820455113   -0.35691219222444
H         7.33691039573125    5.00555479539358   -0.15128093509333
H         6.76819382042094    3.37833205029368    0.26948628299488
P         7.06075741204737    3.71598891820351   -2.17122453077829
C         6.20536902049331    2.00565807345301   -2.17995462369322
C         5.73423060915385    5.09140218292578   -2.33746794014459
C         4.89196214265866    1.87231734583105   -1.41975524751636
H         4.58751737289380    0.82570522415809   -1.42350464558025
H         4.09527929209841    2.45030070806191   -1.88168710635017
H         5.00627501906841    2.17289375188643   -0.38110302904143
C         4.77904434196862    5.29222631921986   -1.16172288052428
H         4.06370486418205    6.07443489084172   -1.41871291111078
H         5.30036312914496    5.60829086702822   -0.26205891261280
H         4.22222900920628    4.39015133801530   -0.93368656823234
C         7.22105292644900    1.03146630275782   -1.57412492983423
H         6.92403460961439    0.00729962614484   -1.79738653666006
H         7.26553737948628    1.12947456590483   -0.49240233930545
H         8.21120986495107    1.19239628587924   -2.00144564161771
C         6.56300850735592    6.36810048943148   -2.53428681161548
H         5.90821087392302    7.22414882377065   -2.69389020930077
H         7.21338622206713    6.26713733762921   -3.40162551940195
H         7.18547516744971    6.58197675987901   -1.66724167966386
C         6.00843156577251    1.62104141394553   -3.64968867472204
H         5.70008744323812    0.57841176667876   -3.72324431072763
H         6.94214713968345    1.73947797149221   -4.19812015684130
H         5.24927350855909    2.22895314618027   -4.13232698482882
C         4.92726010977967    4.86298863008834   -3.61528930417153
H         4.37711777207161    5.76776719631335   -3.87541131268656
H         4.20548349634314    4.06032211529865   -3.48951484170150
H         5.58772028390094    4.61808852137588   -4.44573620461239

