88
CSD_code = RUYPAC | q = 0 | S = 0 | Stoichiometry = C38H46O3Ti | MND = 5
Ti        7.50876594066921    0.94731267677169   11.74503567636325
O         9.07688246558460    1.57315627643546   12.11206653313452
O         5.79864733545612    0.66711222199093   11.87158639355306
O         7.21901765916592    1.85843701811345   13.83655699940656
C         9.69685906204809    2.60023309772713   12.65782595601849
C         8.96444798595799    3.49701461409799   13.46034131914421
C         9.56503917251638    4.63450723958307   13.97472506426159
H         8.97607539083230    5.31510890242573   14.57442483975703
C        10.89494782822281    4.91258653276955   13.72063055097497
C        11.63012573379344    3.99504210236986   12.97869231992867
H        12.67331998326687    4.21416482442077   12.81954838830338
C        11.08076382651216    2.83915824644404   12.45271417108869
C        11.55288442945218    6.14956809311605   14.25610082239321
H        12.25624602957131    5.89378171389928   15.04906131279462
H        10.81382969508499    6.83589031392814   14.66166810644140
H        12.10897479416914    6.65841664746165   13.47037145045736
C        11.93353239182660    1.82041226255990   11.70088552851180
C        13.40452669670557    2.23820175561959   11.59671968568161
H        13.85388796920830    2.35076658980311   12.58046574065123
H        13.51237267606988    3.16866598897215   11.04431276417666
H        13.95668196762414    1.46672565471616   11.06337435278400
C        11.40298623200539    1.61929020623201   10.27458836373315
H        12.01914842323896    0.89129923056238    9.74938262687195
H        11.44054208963420    2.55803886580596    9.72449147548423
H        10.37560936536068    1.25538844602793   10.29352883732935
C        11.87573619565779    0.48826600688083   12.46228489172449
H        12.24846249834403    0.61736732500198   13.47686577681942
H        12.48594581308038   -0.26061389331902   11.96076197749443
H        10.85150135161740    0.12587889332915   12.50892498888390
C         7.50491648774571    3.25306516235028   13.76562865315547
H         7.27125516619421    3.70711559588686   14.74279436764794
H         6.86119806170963    3.73552708390629   13.00699307814646
C         5.95195130205663    1.58220759920811   14.42505977987072
H         5.87461696137957    2.11643384029208   15.38495522096459
H         5.96918334596018    0.49887919745342   14.62084689700843
C         4.76935198997436    1.91035542371251   13.55030427088548
C         4.70873863584791    1.27466721156543   12.28699591445435
C         3.50345144294938    1.35429875884394   11.55012721459005
C         2.52715856853709    2.22692620117676   12.01672684915708
H         1.62592834671322    2.35972326182928   11.43768866820518
C         2.63775062921021    2.95134081243016   13.19424917464999
C         3.75766278117749    2.74355268525515   13.98473092477533
H         3.84166478858637    3.23172559836946   14.94648194078014
C         1.54347110478034    3.88119125335373   13.62715459554266
H         0.75813847742234    3.32694919496664   14.14291580365284
H         1.09465452878858    4.37638548919494   12.76860434539482
H         1.92621105953288    4.63729191950157   14.30873179524252
C         3.19938160109432    0.54188419716552   10.29109097645745
C         4.15626303367642   -0.63740299777271   10.09142882398956
H         3.83347054627948   -1.22394889767803    9.23192414921285
H         4.14480806004743   -1.27720248986482   10.97130469202004
H         5.17942423081805   -0.30614956398789    9.91756026216150
C         1.78431142858164   -0.05435996124682   10.40638709955630
H         1.01269070749417    0.70683049131290   10.34135421876894
H         1.67118452570955   -0.58004245158001   11.35188393095938
H         1.61684495497768   -0.76173014562503    9.59679371368227
C         3.25600155508918    1.45098884445014    9.05526981942714
H         2.60579261671877    2.31442282261969    9.17748456560708
H         2.93519211124872    0.90030935410218    8.17299971696676
H         4.26928305631091    1.80761098421321    8.88389742048841
C         7.40370711716970    1.85525221198560    9.84435225389102
H         6.52591805047755    1.51116947184306    9.28487971700009
H         8.30587143441967    1.69942902889499    9.23917433647622
C         7.26352382660406    3.25842171771959   10.25673393721357
C         8.37359058058502    4.11281029425042   10.34231322274114
H         9.34688076780452    3.74356409605947   10.04892812243237
C         8.24743592198131    5.41529154151895   10.78365737130418
H         9.12393187516015    6.04394143258783   10.84772231175169
C         7.00645319216763    5.92146975680425   11.13712448482382
H         6.90883847977013    6.94069448660308   11.47990046123515
C         5.88889882680130    5.10750309252835   11.02874925557348
H         4.91096633113660    5.49291352955631   11.28302242726579
C         6.01185439872524    3.80109027363202   10.59349497350653
H         5.12195308895618    3.19079955065508   10.50526412542773
C         8.09210603696576   -1.02148060904440   11.32400328798872
H         7.62395485442869   -1.51175844229865   10.46160780432131
H         9.18421067103391   -1.08883015530540   11.25134394894562
C         7.58358291699202   -1.53849002693758   12.60058102503317
C         8.20620094960561   -1.19718805524683   13.81533838638125
H         9.11795453891977   -0.60470678431020   13.80222872748103
C         7.68690076397074   -1.61578255681730   15.02595454573819
H         8.18507481716714   -1.34220252891990   15.94631551263910
C         6.53324050771782   -2.38588874405874   15.06967659642241
H         6.12693156799488   -2.70690236973809   16.01743499144624
C         5.91432388794116   -2.74680746819172   13.88283403974803
H         5.02378995037401   -3.35947540992214   13.90648845054226
C         6.43376463474437   -2.33841756046097   12.66978522579302
H         5.95312690109051   -2.64444410253579   11.74938465928435

