69
CSD_code = RUYQEH | q = -1 | S = 0 | Stoichiometry = C23H41O4W(1-) | MND = 5
W         5.41638768825064    4.94702691236833   -1.12623236277208
O         4.47011322507449    3.55555215636060    0.05151458204407
C         5.07697039685635    4.63220420182874   -2.96177157838142
O         7.05234865497253    3.84394331182762   -0.76114820034470
C         4.85732945965387    4.42662884716262   -4.31777426267133
O         6.61292725991935    6.56711947046611   -1.14365811695921
C         4.21129042280388    3.26770992435371   -4.83799706067098
H         3.87968834311866    2.51254917112650   -4.13669883915046
O         3.88381713996004    6.17656058374822   -0.63831463776120
C         4.00469562764323    3.09290967227856   -6.18375872856191
H         3.50889705952608    2.19421567613890   -6.53882454228917
C         4.42073850150513    4.04914621212351   -7.10502570543481
H         4.25448788124310    3.90509604488554   -8.16535512075095
C         5.05774332112070    5.19438515596930   -6.63343906281257
H         5.38900960672710    5.94747499121086   -7.34227309834866
C         5.27169291313299    5.38226898784639   -5.29183505183614
H         5.77224876809369    6.27355129981500   -4.93360020580346
C         3.28033876863908    2.86063284059810    0.14847093004093
C         2.76382963014323    2.47485759313573   -1.25033823377691
H         2.79494643377971    3.37291789393236   -1.87158012895192
H         1.75280782975265    2.07185111867974   -1.20944435115856
H         3.42874952001067    1.73482529003110   -1.69090913393054
C         2.23564931732856    3.76118098407208    0.84732325387947
H         2.26059898707254    4.73069105580086    0.35023819574121
H         2.50380405013564    3.90257953225449    1.89371959240695
H         1.23355705576394    3.33880365499261    0.79170186219248
C         3.49411812359932    1.57777939703809    0.98452465612909
H         4.23836283738813    0.94979573729777    0.49952335599476
H         2.56423331868123    1.02008112869382    1.08208449553579
H         3.85931784307955    1.83746858158696    1.97663867728490
C         7.77260593710728    2.89324270865138   -1.46901608269405
C         8.86073540568523    2.28386549547127   -0.55462849934247
H         9.55537773652656    3.05645560654129   -0.22850730998840
H         9.41726596919210    1.51166379040337   -1.08233754930778
H         8.39399400122665    1.84726911232374    0.32652414892685
C         6.81991757481463    1.77659870784334   -1.93699692530236
H         6.03644239312344    2.24731832791938   -2.53508087283696
H         6.35843009634027    1.31264196806167   -1.06602884171743
H         7.34290526081255    1.01931598670435   -2.51889841686471
C         8.43041709552673    3.55723559547855   -2.69462317084626
H         9.20266968121712    4.25453054271830   -2.37339637726114
H         7.64999809501333    4.12045925209919   -3.21333485190023
H         8.86897369253901    2.81745404069508   -3.36130341636301
C         7.03248330662361    6.80655968638737    0.15030638752528
C         6.92510252174101    8.31849407134331    0.46386446011995
H         7.49924959251034    8.88206549065562   -0.26866163791484
H         7.30153486396572    8.53857916391433    1.46252045798308
H         5.88480477563114    8.63130799973592    0.39814715710370
C         8.50927424805547    6.36914614997877    0.29291072070524
H         9.12287406916520    6.93166566577630   -0.40884080621657
H         8.57198369911668    5.31101792221557    0.03979019287319
H         8.88005827571889    6.53024769535362    1.30535093913645
C         6.17728478172569    6.02451649481216    1.18121616493110
H         5.15721598202939    6.41986482539100    1.19409627162446
H         6.59917095830360    6.12162832760524    2.18516446396644
H         6.15154677053203    4.96250720702261    0.90894946075638
C         3.08126524870352    7.07729860703191   -1.32464336962509
C         2.11753511134884    6.33242865634018   -2.27048524187219
H         2.72009332458759    5.71108970538583   -2.93288192591627
H         1.52638683635902    7.03299247597636   -2.85700843399305
H         1.44679674134270    5.69272105078725   -1.70007913105929
C         2.26012894322390    7.90485507214490   -0.30687488708070
H         1.62371916077615    7.24665325864579    0.28214196806284
H         1.63660220123175    8.63513319748836   -0.81883987926822
H         2.93115383580341    8.42859380072088    0.37230776423757
C         3.95826568391974    8.02461895464414   -2.16855911425155
H         4.65350888913136    7.39985351180881   -2.73703769170208
H         4.53856295929294    8.68023905497258   -1.52217032730327
H         3.35256429505794    8.63066339131622   -2.84001697620653

