44
CSD_code = RUYREI | q = 0 | S = 0 | Stoichiometry = C9H27ClN6Ti | MND = 7
Ti       10.31406851417301    5.21852316624302    6.29951548018983
Cl       11.60048503114860    4.65622002782898    4.52940446863530
N         9.39330716586264    4.06485174907848    7.42812207620438
N        10.15631772468390    3.17382817525724    6.66205459520592
N         9.09658386840519    6.47001447470740    5.78799104797093
N         8.56434163297342    5.49554121688615    4.93196335041208
N        11.40866786962386    6.44686666190977    7.07118422295946
N        12.01404356445812    5.38726184114984    7.75850186867801
C         8.59620877804475    3.51854208836837    8.49517506977895
H         7.86709095846621    2.77488526147262    8.12910533516533
H         8.04078755688598    4.33594571921930    8.95817190185771
H         9.20406014220791    3.03441918606103    9.28056699303159
C         9.40502508384736    2.33736834789087    5.72523155137042
H         8.89682684999726    1.50486887103793    6.23577908417258
H        10.09760127312219    1.92860277608854    4.98694427487860
H         8.66847116328979    2.95485352373980    5.21294751983249
C        11.11529380740208    2.34520856956552    7.39186977206926
H        10.63544487076027    1.44832440742805    7.81212908569384
H        11.55104108393484    2.92668545331226    8.20221821486123
H        11.90640717991402    2.03179555501177    6.70782106703984
C         8.44154240153707    7.75142426452280    5.85319204829778
H         7.39296750499120    7.67255174725350    6.18349187328476
H         8.45904424985568    8.27766473374126    4.88498923220013
H         8.97495367859739    8.36081973929325    6.58223812564793
C         7.17340942215267    5.14398008471719    5.23098989083661
H         6.47997384775526    5.94998038919702    4.95070628168169
H         7.09113684707955    4.94989574009636    6.30267418895382
H         6.88740222936181    4.25081909386303    4.67288481555360
C         8.71330157666274    5.81814704189431    3.51020479875278
H         7.99517158328154    6.58507650374747    3.18555573032845
H         8.55700316971088    4.91690292319193    2.91513940858772
H         9.73085665020555    6.17806023849651    3.34240991181597
C        11.84041891224793    7.78939737710186    7.36671641419311
H        12.93701015243244    7.87393576714590    7.36390147262823
H        11.46843622972187    8.15484668702078    8.34009823815587
H        11.45392449787875    8.44411082396485    6.58452760385108
C        11.85201181581325    5.48030473621838    9.21097581773696
H        12.45137830447187    6.29753485778492    9.63733084716996
H        12.16658633769737    4.54952405398307    9.68628906689308
H        10.79306749251488    5.65622387611851    9.42091330752073
C        13.41731607842729    5.17040222466092    7.39646449707271
H        14.07793325888148    5.94701126285933    7.80778916278633
H        13.49145149695481    5.17031773502974    6.30683927487775
H        13.74772814258310    4.20266102585304    7.77638101118402

