47
CSD_code = RUYYOA | q = 1 | S = 0 | Stoichiometry = C18H18CoN4O4S2(1+) | MND = 6
Co        7.81178994386390    3.88959296070309    9.39308812564315
S         5.41818094993707    1.13820755767216    6.85540185281333
C         6.57539673360046    1.65803466689123    8.17813530876952
H         7.33669528591792    0.87344704532598    8.24878553142637
N         7.16322263275473    2.92847191769670    7.73537212954387
H         7.83681421120861    2.71542417233100    6.99705431906125
C         6.08702722930369    3.74689727734667    7.12242690334131
H         6.53331186700507    4.41428581336425    6.37812121604101
C         5.00266786619145    2.87196081075953    6.49464537908218
H         4.95051569127567    2.97419032136706    5.41265164353700
H         4.02896285678200    3.12153348784129    6.92256778448756
N         6.54215408514738    2.77865948926127   10.29065097904415
C         5.92976211966874    1.86569177032127    9.52373105852531
C         4.80412523724323    1.18257868324756    9.94649266608878
H         4.34292723137965    0.45913004404568    9.29252301600587
C         4.28205758009070    1.46853883672444   11.19931777783288
H         3.39502148292148    0.96316293140108   11.54720699393685
C         4.90867769787978    2.42732185139702   11.97947728128788
H         4.52720920466421    2.69418544712387   12.95134550032520
C         6.03334985062700    3.06647153718028   11.48719024675881
H         6.53470980517340    3.84489668121336   12.04498290224464
C         5.49197139492298    4.68292186037714    8.23315073104828
O         6.35107491860020    4.99734393261111    9.13069267145453
O         4.35290456142287    5.06050780052110    8.17002733699077
S        12.07396468604297    2.63345697397591    9.38063184171550
C        10.44476552259428    3.12921472308383    8.70263285550703
H        10.31425307377220    2.56801085778861    7.77083021162507
N         9.44462877554031    2.73535042104675    9.70266112812351
H         9.34439532933898    1.71953765961578    9.65436005840542
C         9.98435712837715    3.05804439209573   11.04720576342040
H         9.53998370872021    2.37478324424412   11.77808894654248
C        11.50980119375923    2.97549822529660   11.07600208658641
H        11.87807942249983    2.17027479108144   11.70828810173761
H        11.92668220477860    3.92235362144487   11.42666862052564
N         9.05179623987155    5.06635666761852    8.53760411258278
C        10.30599241009560    4.60516382342307    8.43241484010287
C        11.36874179638043    5.42624597843406    8.10248133685007
H        12.36188334140510    5.01062098692517    8.03365372314573
C        11.12827801502349    6.77612622536986    7.89290529213088
H        11.94140390743119    7.44240524273735    7.65161462855055
C         9.83229907433095    7.25002051314429    8.02124196519253
H         9.60247323179606    8.29398504504130    7.88486721810894
C         8.82110653089144    6.36476733497930    8.35235514432971
H         7.80199376363869    6.69460479777905    8.49763101745041
C         9.48225565258825    4.49175273504807   11.44311388331863
O         8.34395670888291    4.77848767251602   10.92852050469121
O        10.12737784465783    5.18408117058635   12.18398736406586

