45
CSD_code = RUYZIV | q = 0 | S = 0 | Stoichiometry = C20H18MoO4P2 | MND = 6
Mo        5.34431798721660    3.21154985225857   14.32307731379856
O         3.21529593633904    2.88258933658870   12.09884060352173
O         3.76735464219009    1.22341397642589   16.07778246175758
O         6.98005651398484    0.91712051254956   13.05670227773152
O         7.45485825514362    3.45528529037849   16.57670380817897
P         6.23646090836407    5.15918318849343   13.25192439556099
P         4.26915861907444    5.19828483720641   15.07484054804160
C         4.00835660914162    3.01454663051966   12.91077834453568
C         4.37343308775175    1.92483398210212   15.41158656234002
C         6.37322154642690    1.76232322183495   13.52879620136006
C         6.67847634935731    3.37591083829360   15.74327934286837
C         6.69052311752849    6.35820553695363   14.58198388292289
H         7.62248435786318    6.00036639403542   15.03513240196735
H         6.89015201539079    7.34581192998305   14.15098193309841
C         5.54781918490455    6.40982115875150   15.60960113770516
H         5.11521386032458    7.41549693036882   15.67218270077266
H         5.89540327454149    6.12150955894939   16.60842595672964
C         3.68746784610358    6.12363110387395   13.58776716451879
H         2.79142867629708    5.61825324556221   13.21018525112949
H         3.39829871057218    7.14166377192552   13.87697200597876
C         4.82049635855424    6.11673611101630   12.55106301690334
H         5.13894921332692    7.13348826496760   12.29537311749202
H         4.51431653718268    5.61998684760097   11.62295973319823
C         7.55280225746988    5.38279087674883   12.02770440570879
C         7.92835166085890    6.62179840320707   11.51434960878173
H         7.42621937444867    7.52401772137261   11.83522028198319
C         8.95022946567800    6.70090177525485   10.58745005279805
H         9.24148549382621    7.66230312160935   10.18974961430950
C         9.60260765196170    5.55169674873612   10.16714142532619
H        10.40075777526221    5.62195160580242    9.44312739762804
C         9.23227770584073    4.31721807942587   10.67358324355839
H         9.73932407731342    3.42193833310049   10.34621497194398
C         8.20961500610951    4.23334896349051   11.60158891917060
H         7.90505967655690    3.27739115073661   12.00973913248662
C         2.87386199604107    5.38140358215862   16.20676728938184
C         2.76731878414921    6.32846576626149   17.21870710665566
H         3.55964214597339    7.04317614575348   17.38836264294807
C         1.63985453582785    6.34671575733841   18.02179871089143
H         1.55678770405182    7.07993986370300   18.81092436105242
C         0.62200145899672    5.42900698957624   17.82109671547790
H        -0.25283877614213    5.44941066116861   18.45379899420742
C         0.72860402878307    4.47751017856539   16.81791195626475
H        -0.06031320277917    3.75542499779622   16.66880269057889
C         1.85445204541071    4.44960054519830   16.01883139185307
H         1.96905552678002    3.69897621235522   15.24358892488118

