49
CSD_code = RUYZUI | q = 0 | S = 0 | Stoichiometry = C12H27Cl2N3PdSe4 | MND = 4
Pd       11.69950572755423    2.12149880931956    7.00869431879295
Se       11.39301833804812    4.39042494413234    7.37292479474531
Se        9.51747079506095    2.33291095020854    6.25658095254116
Se        9.78822377431570    1.56168810116019    9.26172454818006
Se        9.55357260807170    3.73040475843604    9.90869310687160
Cl       11.53565535357787   -0.06972828254404    6.36783740809368
Cl       13.91948668687523    2.02669602098477    7.48251032936753
N         9.62990724786345    4.10501814971781    6.91137579152669
N         8.64101026467833    1.69853238327888    7.73714773057871
N        11.05580960957966    4.62945303573422    9.22376243899720
C         8.86479802770331    5.19222295014634    6.30011585529810
C         7.63011170932765    0.63672671175230    7.61680701623062
C        12.26415072788933    4.62114546368142   10.07235703127592
C         9.00748316448992    6.41640772912016    7.20282640757975
H         8.65988649186200    6.18095712471207    8.20670347727301
H         8.42824740603037    7.24405480493490    6.80391745646568
H        10.05424281491445    6.71765005229282    7.26492083793031
C         7.40475149697902    4.74934475040497    6.24171177201555
H         7.29950274286877    3.90343749057675    5.56172389036005
H         6.78105290728013    5.56287693697640    5.88287071610189
H         7.07065465711748    4.45157609350138    7.23278810763968
C         9.39553597918662    5.48853002631762    4.89637865132404
H        10.44454024074694    5.78914125442480    4.95509103638040
H         8.82823720824473    6.28630843163394    4.42467312282700
H         9.32335479044158    4.59109688795134    4.27694679124559
C         6.59344997472039    0.88785659328869    8.71419020960146
H         7.07268510395942    0.87397040675863    9.69220399984590
H         5.83085635490137    0.11500111170013    8.68806150428354
H         6.12417357987545    1.85819157076352    8.57328598656900
C         8.25771625355603   -0.74851134820767    7.77467381705105
H         9.09643392275463   -0.85787816892034    7.08644491328573
H         7.52464265999397   -1.52341160289309    7.56684048029424
H         8.62480409697036   -0.88432245014759    8.79360704861497
C         6.96447869245262    0.73489931681183    6.24535793603193
H         6.59102409072221    1.74288247801138    6.07239804733450
H         6.13044877260700    0.04016618480530    6.19519260617788
H         7.67865259507634    0.47433288717807    5.45998371276511
C        13.41451256938818    5.21052626186477    9.25405308639786
H        13.73505727859368    4.49915544612402    8.48298111553697
H        14.26741735382910    5.39916686380120    9.90077031970981
H        13.10839093835090    6.15199667081092    8.79400356347817
C        12.63961642182868    3.21426993207165   10.53655079721730
H        11.89684208361608    2.82224692505812   11.23338289739240
H        13.60369948003148    3.23445841977160   11.03609492159539
H        12.72707122420881    2.53856985064699    9.67695232650938
C        11.96339345645149    5.52115971719213   11.27196314781350
H        11.75607328745802    6.53300355588241   10.93488235524931
H        12.81258616592450    5.53494636685763   11.94873347628041
H        11.09046287192520    5.14994743192428   11.80780814128260

