74
CSD_code = RUZDIZ | q = 0 | S = 0 | Stoichiometry = C36H30MoN2OP2S2 | MND = 7
Mo        9.77213407512370    4.81374585726228   11.89134764870500
S         9.59684486379927    2.26609964621124   11.40627587984383
S        10.16597274447842    6.48537349780571   13.83036765248924
P         8.82116639281776    6.92588103791241   11.46567097179440
P         8.40442627966374    4.81680411116837    9.91570958586163
O        12.17920061364231    5.23113805837383   10.02574050401521
N        11.01390084583606    3.57446090741258   13.06926591407744
N         8.42378142505194    4.63314351644634   13.51193776010008
C        11.24476706450367    5.06973741863037   10.67922534124129
C        10.73866760129104    2.31799937839832   12.67741465992859
C        11.33857412256730    1.20342579480661   13.26862505065956
H        11.07180338020764    0.21938780770755   12.91723649299314
C        12.25509398189600    1.40881183194449   14.27583297036142
H        12.74006215291232    0.57196259327200   14.75577243061345
C        12.55207554954790    2.71544074389899   14.66285367195474
H        13.27119588007011    2.91413722173053   15.44081881616140
C        11.91079956070960    3.76398827302593   14.03412705942406
H        12.11330655998445    4.79364082321629   14.30844118792378
C         8.80608977544519    5.58010455113372   14.38437105379998
C         8.15930558624606    5.79294690982784   15.59824622079879
H         8.51260850992684    6.57436144359451   16.25173149331590
C         7.08329653072013    4.99054689224510   15.91706736308979
H         6.55180684097449    5.12981340247885   16.84631356969200
C         6.70096337484541    3.99500868830043   15.02312119752957
H         5.87373619488546    3.33886253476396   15.24144401733886
C         7.40028596745059    3.85312662271349   13.84142234066034
H         7.13742933731280    3.08411646385430   13.12788226223541
C         8.07263905330330    6.62703800634056    9.79158279237078
H         7.01779952297824    6.89652477811804    9.68011035983963
H         8.67021146977416    7.10674651192478    9.01011459111875
C         7.36672261518732    7.36820416945759   12.45431354545825
C         7.40535395901165    8.37231784121463   13.41691239392502
H         8.28602861484519    8.99538441405713   13.50250837064522
C         6.32550985719721    8.55364124164081   14.26197060923595
H         6.35362048826267    9.33480965004025   15.00758955012764
C         5.21635331162636    7.72919113966043   14.16397403393433
H         4.37920890681139    7.86957462597075   14.83183422942475
C         5.18281205843360    6.71605810858310   13.21832633677304
H         4.32400004525222    6.06389967067562   13.15019130085325
C         6.25705785526462    6.53110858998581   12.36994826400892
H         6.25049519989080    5.72357825912807   11.64367494018467
C         9.70299179168717    8.48744915091766   11.23697056173761
C         8.99505032933809    9.61092006888001   10.81648250928795
H         7.92020693899952    9.54950499068862   10.69466130965716
C         9.66960699159301   10.79143722263509   10.57064078937564
H         9.12481273244300   11.66815527309231   10.25099646125939
C        11.04591064209444   10.84944994592931   10.73290890612599
H        11.56942849983236   11.77453329122114   10.54063948712003
C        11.75066946516165    9.72712117435267   11.13697483021586
H        12.82279072828576    9.77559865622848   11.25618834180455
C        11.08195379271754    8.54163949667019   11.38700733889900
H        11.61302262067209    7.65353674488806   11.70520498935216
C         9.24959771434079    4.31915801860707    8.38832156210431
C         9.10251627866077    3.00157514917920    7.95869005248063
H         8.42323519618222    2.34300725142963    8.48391908072170
C         9.83007506006877    2.53960277736982    6.87831263337373
H         9.71393185669103    1.51674396091002    6.55089201553054
C        10.71166612250180    3.38344169152954    6.22286106127609
H        11.28126696672003    3.02141174060299    5.37958588723782
C        10.87476401338295    4.68846866366689    6.65867820923955
H        11.57453169754151    5.34251223422183    6.15915164148921
C        10.15612018942992    5.15520752010400    7.74323773795788
H        10.31629110828458    6.16575483795297    8.09548819640700
C         6.76655361439204    4.07397227254124    9.59645747660529
C         5.97662057137961    4.58407455128016    8.56883656566488
H         6.34800658776444    5.40128614240730    7.96372176358548
C         4.73506207706382    4.03396062894279    8.31465338190467
H         4.12222714911131    4.43173042385967    7.51850586595968
C         4.27721027434148    2.96890454990878    9.07595529519624
H         3.30452821189824    2.54374113884369    8.87631445636864
C         5.07138402563736    2.44146502393840   10.07991678071947
H         4.72392226953981    1.59822512740092   10.65905852833032
C         6.31524966565704    2.99098214403935   10.33859988784207
H         6.95918664684516    2.56788510080156   11.09615196065842

