74
CSD_code = RUZDAR | q = 0 | S = 0 | Stoichiometry = C35H33MoNOP2S | MND = 8
Mo        4.42238236563256   12.94147396776001    9.97100877800835
S         4.91063238121879   11.48796426501903    7.91939632726619
P         3.66269917369339   14.05217911881713    8.03017433338112
P         3.78153222927274   15.01345708084620   10.89812924551669
O         7.17828098113771   14.26060322115080   10.24343886810111
N         2.86561761873513   11.49337613152777    9.46481861480840
C         6.10879765841904   13.84530425003570   10.12554656445496
C         5.40409960426561   11.09539356431139   10.95496429919055
H         4.70125501349084   10.26301927502734   10.89759603226523
H         6.42611181254772   10.81281950380611   10.72259285755169
C         5.19625610408720   12.07236481891129   11.92679608775043
H         6.02555413094083   12.59050985484458   12.40322835927225
C         3.86716268102918   12.47296073087205   12.15588888864910
H         3.69640240488723   13.18654456015928   12.95638060626277
H         3.11118368788916   11.69151169753328   12.12916959333114
C         3.37118840287564   10.89128486978155    8.37341676506842
C         2.70117317122549    9.87443990611360    7.68937873080301
H         3.16767408654504    9.43937110338437    6.82022084704679
C         1.47147460221382    9.46543562604575    8.15129259388539
H         0.92207618355084    8.68578501039617    7.64560986052860
C         0.95402907338723   10.07390434590464    9.29265128828269
H         0.00074649082088    9.77598171074162    9.69940232975011
C         1.68489851973253   11.06871799554582    9.90813740751530
H         1.29971443232471   11.53739848335589   10.80499100214981
C         2.93885767752987   15.70045852007584    8.45063165196602
H         2.90541978284557   16.35715072438826    7.57490594343800
H         1.92127325560758   15.56893568550381    8.83219029227671
C         3.83075404218453   16.25665128218372    9.54609047968250
H         3.49745885144075   17.23718378548849    9.90509274243712
H         4.85992261749209   16.32640078309327    9.17629420163887
C         2.33096623489852   13.30486625255273    7.03710797055549
C         1.03490665882159   13.25580757817000    7.54259389410063
H         0.79872279597908   13.75229647468806    8.47423924992411
C         0.04593711983221   12.56574528641553    6.86623066464473
H        -0.95710059679817   12.53408315343571    7.26723225637147
C         0.34201748822983   11.90773579661829    5.68435827568752
H        -0.43012689542744   11.36368242079563    5.16046347622895
C         1.63213177933808   11.94097535236331    5.18114563426722
H         1.86906452460149   11.42045300027192    4.26465843274798
C         2.62433422487984   12.62829066002308    5.85475840479979
H         3.63775227511193   12.63209596180102    5.47595924909881
C         4.83402377451290   14.57733641707753    6.74028849536346
C         4.36845704171825   15.26297177041505    5.61871464789857
H         3.30557817952046   15.42740866817698    5.49094421769653
C         5.25747276427494   15.70900683797947    4.65999690467949
H         4.89101475442436   16.23482997762150    3.78979446693503
C         6.61650027348021   15.48025861206294    4.81229098748089
H         7.30897262187611   15.83148402780980    4.06128186891558
C         7.08264137275241   14.79536093531829    5.92143082111379
H         8.13981122873035   14.60934824723006    6.03919628606947
C         6.19499925010261   14.34340652278729    6.88266030567966
H         6.54998225809376   13.79103368010204    7.74126279587662
C         4.80354038924319   15.79242781464993   12.18661840766808
C         5.98292955089849   16.45656649641660   11.85690553775797
H         6.26147761189096   16.58789730529393   10.82222574196850
C         6.80674062128921   16.95463217657301   12.84958891059072
H         7.71878130573139   17.46649640482861   12.57978106695517
C         6.46961818646444   16.79601840596589   14.18341865927718
H         7.11829015190586   17.18050547640937   14.95656593926343
C         5.29368603974781   16.14734492933076   14.52199485144058
H         5.01957913050583   16.02901196247057   15.56049930470427
C         4.46720180850286   15.64915860831138   13.53230751224132
H         3.53835933045476   15.16449106292214   13.80569032694196
C         2.10947017541361   15.40526235065569   11.52426393578276
C         1.79749118174205   16.61418007132695   12.13990322731355
H         2.57706250715487   17.34126582248763   12.32585976809998
C         0.49436130765042   16.87477766051653   12.52074462448617
H         0.25245958033814   17.81085351244760   13.00321232676427
C        -0.50433376573601   15.94168134740393   12.28452415834423
H        -1.51996335791803   16.15256774595475   12.58587096986139
C        -0.20080971834370   14.74294931718318   11.66125423396691
H        -0.97950405138562   14.01789816567877   11.47042672978415
C         1.10423693962070   14.48160080754641   11.28421724589386
H         1.37883690884222   13.56115304929838   10.78868162248265

