53
CSD_code = RUZJED | q = 0 | S = 0 | Stoichiometry = C23H25ClO2RuS | MND = 9
Ru        4.21653929161448    9.39626757700579    7.71269717011130
Cl        4.48465502521418    7.19950366284571    6.94102268485027
S         1.86348258117547    9.00150029133066    7.46330834700349
O         1.46219911988021    6.08918403871571   10.80000068789808
O         3.85971987433934    8.41518676380981    9.52507132714189
C         2.63777205915770    6.74179233404189   10.65120218560243
C         2.80039216289822    7.70123657100080    9.63492300885261
C         1.68283254360134    7.90248764027715    8.74774054098623
C         0.48688917634005    7.20926488581256    8.98102473443020
H        -0.35769574512757    7.37723934559557    8.33475011187122
C         0.42057735204396    6.31121984564364   10.00860238728711
C        -0.77878028111128    5.48527195846774   10.34008311403027
H        -0.56863727059115    4.43294542535593   10.15280757987027
H        -1.62524050959599    5.79155167123416    9.73502655213129
H        -1.02754864103426    5.59157681972260   11.39448937313292
C         3.65794433901642    6.35629473815399   11.61076414073575
C         5.01046908968758    6.64041758139406   11.40126585019517
H         5.31021385090307    7.15139133016810   10.50073424131026
C         5.95869739937372    6.24565163435629   12.32260504505620
H         7.00028571487146    6.46785208846392   12.13837298412513
C         5.60194591898069    5.56114515270428   13.47853801559458
C         4.25611303096777    5.27083174480728   13.68288735394851
H         3.95887300497456    4.73426188539458   14.57306514690111
C         3.29950529426492    5.65531104404535   12.76911610345585
H         2.26118826252754    5.42011873177572   12.94694937862004
C         6.62859160918619    5.15510457444060   14.49006688911167
H         7.62898023642003    5.19159510504944   14.06618869451662
H         6.43481568942645    4.14730248989256   14.85227258963330
H         6.59589824684924    5.82872466403405   15.34725304223044
C         5.03008759030758   10.66185417323993    5.99892293261964
C         6.12876753283121   10.06235014552823    6.65829529183533
H         6.85455530747894    9.50200960917768    6.07673032003522
C         6.32039034379764   10.20697304630433    8.04462681159444
H         7.19219403775233    9.77099995854372    8.51943589975816
C         5.41925693355248   10.98736076020379    8.81874761306692
C         4.33715996279039   11.61317663236849    8.17375192778489
H         3.67615805305284   12.26679793069321    8.73100651172346
C         4.11775861255573   11.40428879599184    6.78957200491667
H         3.28600663702084   11.91167072237341    6.31183082705633
C         4.84325241320073   10.51441931594073    4.50659704535261
H         5.69572555783350    9.94794172917439    4.11482684959598
C         3.56982713565203    9.71726605455111    4.21093108981920
H         3.60503107037774    8.75792506479967    4.72755688490935
H         3.47931190326325    9.53410841698486    3.14310584682698
H         2.68595124845597   10.25542164285403    4.54716734865711
C         4.81636768867668   11.88128340203620    3.81735010884243
H         4.77650088121321   11.74894694947260    2.73901302788923
H         5.70961477495202   12.45329900173429    4.06201361158222
H         3.94389927138613   12.45502801633138    4.12091087811589
C         5.64259819739242   11.14078695523653   10.29230933670326
H         5.03195386388023   11.94336954487906   10.70036523635398
H         6.69151962972426   11.34358806858411   10.50419010088345
H         5.36903292660607   10.21150246746437   10.79571321344683

