55
CSD_code = RUZJON | q = 0 | S = 0 | Stoichiometry = C23H26ClO3RhS | MND = 8
Rh        2.46472241035920    0.52789087035514    7.93609896851684
Cl        3.43809766570103   -1.47311083974748    7.37906032528763
S         3.15000475143533    0.10819560441268   10.16920252504627
O         0.14901325334518   -3.02585525447404   11.11575224436680
O         0.84675416492765   -0.65703330174119    8.52788453615006
O        -4.32734125631127   -4.17842529932521    6.90933513351004
C         0.03938685622566   -2.36593119335640    9.93845927778116
C         0.95155238542331   -1.34909890975589    9.60024770746223
C         2.00019231739714   -1.07766218430033   10.54805616447879
C         2.03796516993342   -1.78961579779088   11.75643408568662
H         2.81431938750954   -1.57822881770150   12.47213713003775
C         1.10353549819268   -2.75441211657991   11.99732342399123
C         1.04925313719559   -3.60057151682457   13.22716934211205
H         0.07481727936565   -3.50688617769184   13.70394996834290
H         1.82285882688342   -3.29938456359632   13.92527499054543
H         1.19129333471394   -4.64800611783037   12.96464031077961
C        -1.07398950967831   -2.80609614947452    9.11852535582017
C        -1.20395185691135   -2.43114317527753    7.77936363023912
H        -0.45211988720140   -1.80147267977591    7.33375915565994
C        -2.26661878583729   -2.86911190598482    7.01411977918846
H        -2.32429692224007   -2.56108155020071    5.98188349117321
C        -3.23856437460248   -3.69740017885097    7.56757882108447
C        -3.11438415540643   -4.08293090401562    8.90553105154616
H        -3.87123491629226   -4.72767511118224    9.32399296297543
C        -2.05439118782116   -3.64966207563981    9.66333976972772
H        -1.97657840524804   -3.95840662725708   10.69411834167274
C        -4.50307352703744   -3.83419028568095    5.55657691068391
H        -3.67229683558456   -4.19123683658299    4.93969634362439
H        -4.61275128710851   -2.75241277809856    5.42820034948801
H        -5.42165792649926   -4.32807269399290    5.24349474125288
C         3.26687748077081    1.57928146822364    6.15868226521869
C         3.60481421918957    2.25674294038469    7.36894603952703
C         2.37395530234263    2.72061970799022    7.98259422606124
C         1.29651853527575    2.25513810255748    7.19107974676724
C         1.84249870818986    1.49928287230598    6.08718218785265
C         4.21981344752754    1.06708145967401    5.12727484344143
H         5.17737734364783    1.57562057468015    5.20744893230978
H         3.81065198431871    1.23258338793920    4.13205207523026
H         4.38719447139600   -0.00339197694804    5.25481109073138
C         4.98387648457437    2.66275195403221    7.78623101035085
H         5.03668364340864    2.80922643248079    8.86237627453857
H         5.25428114820295    3.60070815989758    7.29662637586614
H         5.70968198390861    1.90200772461227    7.50851891603352
C         2.30246027490983    3.65354270186293    9.14920957649879
H         1.32272245266151    3.62251898379256    9.61950099384910
H         2.49402177479069    4.67374578882311    8.81095298943388
H         3.04855074665866    3.39681945807461    9.89832645414181
C        -0.16043092253462    2.53504395309548    7.37478035994162
H        -0.72387021304336    1.60479328363103    7.44209770119631
H        -0.53382366084878    3.09957537769765    6.51939109249931
H        -0.33926436056246    3.11170399378632    8.27823429137940
C         1.05725235097936    0.94712338355975    4.93982409789912
H         1.55023268004786    0.06967494011249    4.52725778829765
H         0.97251575495640    1.70076163099357    4.15332230513874
H         0.05599276435465    0.66707226470268    5.25817152742579

