52
CSD_code = RUZMAA | q = 0 | S = 0 | Stoichiometry = C21H13CdCl2N5O8S2 | MND = 7
Cd        7.68168337051458    4.48694000486332    3.54377873413139
S        11.92784203963934    4.79253707687978    1.57089031431783
S         7.34820123141293    6.34265153310413    7.84039692406845
Cl        9.11423102227398    1.93636701916546    3.67258163767540
O         8.89145226333419    2.74587856398422    4.82814341759815
O         8.02778507698511    2.13397152671753    2.75751629736601
O         9.18102066044235    0.57671665998331    4.03897680936719
O        10.32396589928474    2.34491663226795    3.04391590078877
Cl        6.37065482643156    7.10382134870483    3.48675343281416
O         5.62417494165471    5.89155598577620    3.31244996052162
O         7.69206021227235    6.90284800453031    2.98279343877270
O         5.73805672510356    8.15122451149320    2.78689406308746
O         6.44280180309277    7.40349810910732    4.87614261929863
N         9.49184037695652    4.80341390982616    2.24024243377148
N         7.33288974448582    4.97643360538855    5.71545040374862
N         7.15446272448260    4.23805469633931    1.20984415926303
N         9.60105401215410    5.54703543613737    4.68372943144057
N         5.73597049134423    3.36748022577598    4.40915999356562
C        10.65985080586011    5.11425446054425    2.70092950267862
C        10.76441286012028    4.23686116724265    0.44874722115029
H        11.07322974671943    3.88515820247536   -0.51504641946030
C         9.50265965651021    4.31616421613169    0.98542491750473
C         8.11099412555432    5.74097381176884    6.41047885935252
C         5.93412176675098    5.47371709697260    7.43180219154944
H         5.07283576359389    5.52063248229240    8.06737785263433
C         6.11138761399170    4.79478799711967    6.25111553528488
C         8.19918713319919    3.98646000084488    0.41340123277719
C         8.04047623216266    3.46990812354004   -0.87153585560261
H         8.90110751886551    3.26922500960364   -1.48935245613402
C         6.76081895668064    3.21694703121664   -1.33355751498776
H         6.60760769163211    2.80884580684739   -2.32184325127071
C         5.68353567229930    3.50528404713767   -0.51062525838276
H         4.67106883418930    3.33626707402052   -0.84178078330526
C         5.93409659408182    4.01597660607932    0.75673682734056
H         5.13115034000251    4.28111769521546    1.43319710854966
C        10.75727135175259    5.64610769226199    4.04832155067604
C        11.87346225180803    6.22319242791563    4.65566900849260
H        12.81512641286955    6.29016336095712    4.13340180589172
C        11.72365834105756    6.71621834265195    5.94455968843071
H        12.56290487445209    7.17829578307926    6.44314752668185
C        10.50227945604430    6.61902585102466    6.59693770073890
H        10.36783772653091    6.99627909499753    7.59873563976605
C         9.45113632198494    6.00224654678609    5.91693158264111
C         5.21356027128436    3.90672453660749    5.51612534349369
C         3.91710401123626    3.61621574256755    5.93793458569366
H         3.51865856551310    4.07131464131897    6.83056123321747
C         3.15429504582877    2.73849702246402    5.18779529616992
H         2.14375506591501    2.50061139022538    5.48606120978924
C         3.71335179970845    2.16519394594336    4.05657514034529
H         3.15523356043642    1.46484960849864    3.45545723884134
C         5.01218372558343    2.51381345288986    3.70824224939648
H         5.50729248389882    2.08002488070395    2.84841351846977

