68
CSD_code = RUZNUW | q = 0 | S = 0 | Stoichiometry = C28H36Cl2OTi | MND = 8
Ti        5.01331011057592    6.19655056992584    4.45183639631557
Cl        4.95126794521876    4.23537703173634    3.46467446761602
Cl        4.01128702263254    5.45324715951519    6.25502105002874
O         3.77075874234207    7.01512631522719    3.70573175496000
C         6.37526393767473    7.80418920833581    5.35144644479909
C         6.91209993781614    6.53050897181001    5.73465004567351
C         7.30099493657245    5.85096941760590    4.56055350293436
C         7.00410607271501    6.68435335812136    3.43907582531732
C         6.45358216859967    7.90049355529287    3.92616826394195
C         7.21536880094800    6.08562072682238    7.13696611762997
H         8.20335547299762    5.62534664728196    7.17326367692457
H         6.48561931912495    5.35722880839197    7.49757927655519
H         7.20508376632917    6.94053880452845    7.81205260767937
C         8.03723496127151    4.54439533058837    4.51139656229378
H         9.11362352074704    4.71932177125245    4.59185292418379
H         7.84497876190653    4.02469145535125    3.57416526316804
H         7.73164630149051    3.89656313424054    5.33278569476938
C         7.36851312552401    6.37394552970352    2.01591382604900
H         6.92180487430121    7.09335853267103    1.33147482255830
H         7.03446291574243    5.37220954986004    1.73982848130337
H         8.45336691677355    6.41407562051317    1.89247012019634
C         6.08286087464237    9.09387756865677    3.08910411486666
H         6.98024760866160    9.64928413541133    2.80437184969768
H         5.42489377249427    9.76383954447267    3.64191702734425
H         5.57102394634803    8.79285630059090    2.17282220823867
C         5.99744564948392    8.87074522209409    6.28734410037938
C         6.49225012814934   10.16580795134320    6.13116070037105
H         7.16621550665095   10.38468994372511    5.31640526612755
C         6.15356945467567   11.16267876893855    7.02538799012857
H         6.54843842628333   12.15930834057139    6.88655753211999
C         5.31956975958513   10.90361125199037    8.10650149760277
C         4.83766085831471    9.61045923965669    8.27024331499042
H         4.19111900398546    9.38526402894759    9.10689707951965
C         5.16809274507931    8.60660125909100    7.37967204634567
H         4.75965107680657    7.61309853590443    7.51351238765577
C         4.93393935535870   11.99959255204405    9.05234488707301
H         4.13163169573365   12.59937869383489    8.62030751428155
H         5.77716192651499   12.66006698917884    9.24372774351110
H         4.58213596113047   11.59302392605011    9.99741639972212
C         2.99623560898980    7.82866724204332    2.99621610016018
C         2.83669666655824    7.60478128580389    1.61554181071177
C         2.03340970584044    8.47161967016295    0.89328509519135
H         1.88981587952016    8.31394942034814   -0.16385029642071
C         1.40591886792685    9.53847027316943    1.51236636812441
H         0.78114778620880   10.20285858295266    0.93439100989754
C         1.56648064339574    9.75217201749764    2.87038534970043
H         1.06336996446208   10.58308418905161    3.33859140134085
C         2.36132915566672    8.91187840943733    3.63190302602294
C         3.49494143465333    6.38367134830195    1.01995762081029
H         4.43418911634362    6.20548281903134    1.57035870088901
C         3.82253404029841    6.52205364841905   -0.46451403395392
H         4.43458987171059    5.68123050967310   -0.78266384898570
H         4.37090392224428    7.44206719305263   -0.65777381871748
H         2.91687897803834    6.52295184394436   -1.06626647801996
C         2.57774642201663    5.17825118663073    1.26391410293678
H         1.62565193224815    5.31877044945844    0.75491628869275
H         2.39002324256125    5.06010717436563    2.33263473836695
H         3.04627379237839    4.26829862948950    0.89683738352653
C         2.54673447745050    9.05624654842880    5.12266715408352
H         3.56548821064825    8.71397205812320    5.36331202083375
C         2.39146731676558   10.48879771272859    5.62470207105445
H         3.00610318507530   11.17215018000390    5.04224453458688
H         2.70969217402078   10.54439640330887    6.66308733495361
H         1.35485537245792   10.81265427507416    5.56938732739844
C         1.56658170305563    8.11979872187675    5.83986699138257
H         0.53943590239626    8.38582732840884    5.59585220652800
H         1.70337726758135    8.19013486294596    6.91648286883354
H         1.74328999831558    7.08666026497756    5.53736618521108

