46
CSD_code = RUZQAE | q = 0 | S = 0 | Stoichiometry = C11H22N6O4S2Zn | MND = 5
Zn        2.39018513295929    2.49892343081770    9.56947960694230
S         3.74379628271883    0.40262058959132   10.07527005761535
S         0.13453859270591    2.07169995131257   10.95160391412937
C         5.00531068306350    1.37540000448548    9.53756512544401
C         6.40011867254874    0.91521666729566   11.51152978175927
H         5.44926438725554    0.55018952896272   11.90410159775019
H         6.79093321217163    1.68707084105935   12.17961436378388
C         7.39161326986512   -0.23671427510773   11.38869092443853
H         6.98479996794726   -1.00753667310903   10.73987453548362
H         7.57717468986499   -0.66752122121363   12.36794167970442
H         8.33676436441162    0.10893481685492   10.97561998720682
C        -0.50165462740160    3.08770978156266    9.78459779375540
C        -1.77024521783647    4.39734815465210   11.42620400185129
H        -1.78716366348971    3.45994188030902   11.98582780470455
H        -2.78444048834386    4.79977067737779   11.36760198267947
C        -0.83889671382060    5.38811373199591   12.11455431495099
H         0.16813510154826    4.98161414988112   12.14518730792105
H        -1.17528595097826    5.56299952429629   13.13220095006223
H        -0.82274459818132    6.33799892938332   11.58478601652379
C         3.18290100494489    4.63676818897111    9.27860618678899
C         3.29741002326377    6.09572228756135    9.70776987408813
C         4.21949253374828    6.73047625003187    8.98946459573294
H         4.53998372089500    7.75295445829123    9.07389603762455
C         4.80402467340361    5.80414428363509    8.00688922569178
C         2.45480479258240    6.59315907537896   10.81701829649261
H         2.71146991682248    7.61835214036118   11.07355966949555
H         2.59230336627840    5.94419163099599   11.68102605174565
H         1.40875047702640    6.53709663463377   10.51914035704765
N         6.13584995039678    1.51485578315592   10.22398736487905
H         6.83896893210835    2.14203058848618    9.85869683377124
N         4.95906367619534    1.93333405418754    8.30322430004179
H         5.53023867522289    2.76499755588375    8.16528235629095
N         3.70626350940594    2.01119498081025    7.65211354681081
H         3.59219181176759    2.96361260729465    7.30080050214739
H         3.69405492703771    1.35041771898053    6.87508056994128
N        -1.34644330344243    4.08093478103094   10.07935133876923
H        -1.55883330876522    4.75095171026702    9.35430315772098
N        -0.29295869409026    2.84396894622623    8.45300766018958
H         0.01518497793451    3.66859509151796    7.94010574028797
N         0.60503295926607    1.76732264759241    8.18044763033846
H         0.22350849328201    0.93246640647756    8.62866430765024
H         0.62657931885726    1.62566971777193    7.17450130484511
O         2.00817455749322    4.27004250307442    8.78756017244543
O         3.63840945143459    3.78610073191514   10.19590252538740
O         4.20835092665460    4.62004735350312    8.11415980871456
O         5.69271953325178    6.01371138155540    7.21438883834519

