65
CSD_code = RUZSAI | q = 0 | S = 0 | Stoichiometry = C30H23CdN5O6 | MND = 7
Cd        3.41943655390264   10.23570648034649    6.43185695206305
O         1.70852697489680   10.49107638576747    5.20381624881030
O         1.91386691479375   10.54030370714974    3.08842683546659
C         1.75764057989130    6.99484204871457    8.98389237453186
H         1.89391292231526    5.92683154490271    9.03725101696872
O         5.24036527293616   10.09154375787958    7.50573926707367
O         6.65521902100864   11.67577279120950    7.41785250804508
O         4.79487116270212   11.86409155296671    6.40870836211940
O         3.62468580205242   10.22509469710730    4.30861135510696
C         0.62113468222038    8.98711772981874    9.65526824049237
H        -0.07285767804205    9.49988109253336   10.30125592027275
C         0.80647561365997    7.61161049047902    9.79687827265164
C         0.59790732190637    5.79147712225313   11.48145138702464
H         1.64589866824261    5.56533139096996   11.34981827713670
N         5.58834750700901   11.22080841690494    7.11084238597437
C         1.36294324394283    9.68240877019018    8.70520774986619
C         2.48647153175299    7.76459412941467    8.08256058629515
N         2.27256889109496    9.06983173532098    7.95432166947242
C         3.52713986974285    7.20420224121082    7.19797319463216
C         4.15623146429279    5.98727402822323    7.45096663906382
H         3.91101274004724    5.40783516192429    8.32663008343401
C         5.13189808974538    5.54373060248743    6.57341855024506
H         5.64037956863660    4.60778905603239    6.75218235095156
C         5.44652505447592    6.32196174733991    5.47226522262590
H         6.19951878045170    6.01096972329301    4.76602290959998
C         4.77684555108871    7.52662678707628    5.30166806095394
H         4.98697883255724    8.17724007314322    4.46132918966020
N         3.84693978781080    7.95228546286611    6.13923304704266
C         0.02201190598030    6.83907058264631   10.76258415469278
C        -0.14799181188355    5.06759379392809   12.38505038570628
H         0.32045271779211    4.26689695708105   12.93945294495856
C        -1.50127220847103    5.34905216610607   12.60658196473070
C        -2.07271231059029    6.39603023338972   11.87553639920921
H        -3.11728521908262    6.63380808017642   12.00135035811955
C        -1.32602606247768    7.12803455389680   10.97939950082439
H        -1.79951946618725    7.91430892978991   10.40975434291967
C        -3.76757161824891    2.75734673045425   15.46072145831399
H        -2.80648708213075    2.37109779680712   15.15814420372333
C        -4.52471666096821    2.03776357661644   16.36155875916812
H        -4.14259186081523    1.10516324943494   16.75236477620262
C        -5.77265895042186    2.48977936284200   16.77685965117433
C        -6.24329707944042    3.69032564580832   16.25616480120735
H        -7.21104778436277    4.06007245764444   16.56432653014063
C        -6.60067011397865    1.69470806532545   17.73713985455154
H        -7.18084149185540    2.34967197314067   18.38346855471579
H        -5.97514787016921    1.05222631008205   18.35222272596727
H        -7.29926802475329    1.06146839652404   17.18863369777857
N         2.40896605437281   10.42642447577286    4.17536395081142
C        -2.23561328703185    4.54583819005888   13.56151216878868
H        -1.68059773489358    3.70672008970149   13.95913321073621
C         1.21050288022373   11.13038193565789    8.45992930400636
C         1.07190556136225   13.79768834773332    7.90120161457699
H         1.05676893585516   14.84812905708297    7.65863776258889
C        -3.49061015313937    4.76583837135776   13.98374806560842
H        -4.03250804839555    5.62479209361227   13.60940664397368
C         2.14310161760330   13.00200161868026    7.51608471607255
H         2.98473654946704   13.41180348578534    6.97079306260089
N         2.20859119706079   11.71010858022743    7.78822316336875
C         0.09357969987519   11.85214609991646    8.87554012616622
H        -0.72022051833603   11.36788223679752    9.39095855641657
C         0.02608503008891   13.20558306784733    8.58863556778258
H        -0.83331949572342   13.78450363043000    8.89324989280678
C        -5.49185836138588    4.41186363862284   15.35284996183453
H        -5.87832305970700    5.34302173026335   14.96222719966952
C        -4.23383060029431    3.96541576123585   14.93524131049155

