44
CSD_code = RUZVOY | q = 0 | S = 0 | Stoichiometry = C9H24AgIN6S3 | MND = 4
Ag        3.66542208983827   11.40021926396295   11.70002885095498
I         1.38670653875713   10.59190247122110   12.94754742092407
S         2.28476039941024   11.83269234600504    8.90443457721457
C         0.61017338056360   11.74595444806583    8.90448170041111
N        -0.00086050795034   11.52442973369183    7.72557695918392
H         0.61642653877595   11.55458332384687    6.92768439075878
C        -1.42284561246310   11.60339513689070    7.47267985573870
H        -1.95646145353577   11.05324657161728    8.25380941509753
H        -1.61295149118563   11.09908539252633    6.52333792484957
C        -1.92302135738304   13.04586659057122    7.40564575558041
H        -1.72656629423148   13.56311238354179    8.34140871496811
H        -2.99202823703881   13.05996104922345    7.21418534224206
H        -1.41975549591149   13.58190984579947    6.60473078874453
N        -0.10535062121430   11.91881534324254   10.01942299391604
H        -1.08944812905499   11.70518872649391   10.03125764988248
H         0.38324219550358   11.81970789083484   10.90897914538702
S         5.14982803352691    9.34462632913771   10.73284012927852
C         3.96146979415207    8.17808545327094   10.63560685768648
N         2.74492747831973    8.46062240682392   10.16271435159103
H         2.59234513961678    9.42061150040607    9.87432024866262
C         1.64135340983098    7.53258615883068   10.04786485866237
H         1.45749796784307    7.06069474430558   11.02091476764284
H         1.89332602824142    6.75054550224593    9.31894671164213
C         0.38680648074648    8.27054985459104    9.61240764356299
H         0.10488767295154    8.99072877691088   10.37594786436830
H        -0.42998485538005    7.56689783363461    9.47860886949548
H         0.55924557420834    8.78914083212671    8.67201838320395
N         4.26262359266881    6.90042590355182   10.95867536857813
H         3.53240174720845    6.22974862643342   11.12927063209982
H         5.14207562135629    6.75785635208006   11.42634007777835
S         5.09011810549642   13.58829795185656   11.82324011929449
C         4.11859697967204   14.86085627847514   11.37380589439160
N         2.96096336387332   14.69160617653055   10.72413158492725
H         2.78005084930912   13.75997014335157   10.35630867028075
C         2.12439814761360   15.76539132653131   10.23179718596526
H         2.66473130294678   16.35334473305188    9.47622277473337
H         1.86574125888071   16.42843884966670   11.06717034978728
C         0.85050581011292   15.19762610494479    9.62867310673255
H         1.09017914376896   14.55551015408986    8.78504928488047
H         0.21134992537334   16.00539493928831    9.28208886072901
H         0.31192663376250   14.61398684042361   10.37125422160725
N         4.54154417328081   16.11284468923696   11.65791421187823
H         3.93982729205917   16.91160021348444   11.56087838393391
H         5.34432138566325   16.19224080719670   12.25837710081415

