81
CSD_code = SABDAB | q = 0 | S = 0 | Stoichiometry = C46H30BrFeN3 | MND = 4
Br       13.03089181079648    8.23281007784873    2.96560335789565
Fe       11.26054913616496    9.48003879941070    3.62782299522161
N        10.33011363030644    8.17767461439093    4.68510784986971
C         9.29522442338540    7.33080315253823    4.28169144291913
N        12.18217318535747   10.17280244574578    5.24204126354649
C         8.63092691187957    6.80983950785021    5.45678458974917
H         7.73245978822115    6.22504296026414    5.43596456699297
N        11.64264852782039   11.10198940449173    2.68058111939480
C         9.34072587339100    7.21263991196938    6.52780976683380
H         9.15142525405735    7.01526384636999    7.56497849569189
C        10.43115658489844    8.01517193867869    6.03644603955821
C        11.45375573862292    8.50771232450692    6.84409226608745
C        12.35042932721193    9.48204707932094    6.40203297550118
C        13.46730642621933   10.00762752092481    7.12702699751959
H        13.83963594302389    9.61743247520556    8.05392833230511
C        13.94465990942825   11.05354670476808    6.40406133240527
H        14.78318708145528   11.68435089209664    6.62526039777929
C        13.11601508290244   11.16242889042615    5.24170372067235
C        13.12955555991430   12.19473031240700    4.30198049687074
C        12.31561449459192   12.18306461860066    3.17129168592008
C        12.10062020692687   13.33186461123358    2.32948412328070
H        12.45572439682480   14.31998265777650    2.54883662885851
C        11.36812244137680   12.92099580614955    1.27699979872760
H        10.98811856713147   13.50564235528130    0.46248246077091
C        11.15284696291594   11.49863494429976    1.43384435635504
C        10.72298494908143   10.69676954823870    0.40455067898562
C         9.92601110858198    8.75949108905669    1.70958624903745
H         9.46598486616856    9.45097785009983    2.42645260324136
C        10.47741114773193    9.27914036748009    0.53342643871630
C         9.64680763116318    7.39260962320425    1.81909249284622
C         9.96387052400517    6.54508459318977    0.75214753355605
H         9.77724110627771    5.48616991886424    0.84403855296942
C        10.78260910417422    8.40886067392872   -0.51844416094062
H        11.23322636071284    8.80215318294175   -1.41671334437876
C        10.53625337091292    7.05495437388707   -0.39708565527454
H        10.79477345325931    6.38956992911354   -1.20685810056081
C         9.03185604986448    6.86699330180108    3.01527697617821
C         8.12399900624558    5.72515543291822    2.82653443975202
C         7.11197958835090    5.79977028486931    1.86965049218911
H         6.99182659116909    6.70782711094436    1.29590157151639
C         8.27596500212766    4.54435739614413    3.55191765399547
H         9.08360715529167    4.46169040163913    4.26409940333195
C         7.42392323146153    3.47689259102416    3.33936479477014
H         7.55643232315565    2.56581174526291    3.90412126421867
C         6.25614898702415    4.73411705719182    1.66708659259141
H         5.46894296591164    4.81035245622463    0.93143192600997
C         6.40748801099304    3.57005282962542    2.40288273923790
H         5.74045627405785    2.73642592570049    2.24166176780369
C        11.56630604183780    8.00282403115157    8.22255625816462
C        11.67311899396640    6.63490484820559    8.46228580740713
H        11.68892350206949    5.95241366718491    7.62512619904202
C        11.56597233421823    8.87957475534144    9.30445461563904
H        11.46825451367693    9.94078583161481    9.12619480078630
C        11.78131741079568    6.15686787321861    9.75498464303745
H        11.87088586779391    5.09443321199131    9.92826911286001
C        11.66675847484711    8.39752165779534   10.59647234663062
H        11.65867337634091    9.08675995057761   11.42839033163287
C        11.77633004019659    7.03591681343246   10.82543371139207
H        11.85782841332270    6.66133846859639   11.83508108474726
C        14.00643037504372   13.35584542927260    4.52735361327267
C        13.94690499909156   14.07304845207458    5.71961086944073
H        13.23460180477328   13.78181691126611    6.47815156347461
C        14.91239489397371   13.75168080127865    3.54618251100355
H        14.97119176599091   13.19023752531545    2.62525159226865
C        15.74392406163821   14.83587664517583    3.75721333317578
H        16.44850621715032   15.12828801398294    2.99241738907343
C        14.77488986196361   15.16138144843823    5.92434120732969
H        14.71570057667631   15.71352138115619    6.85117270986963
C        15.67712919855799   15.54413865010474    4.94568114574226
H        16.32628167038847   16.39172131088936    5.10897587648338
C        10.55471812461207   11.25786920601379   -0.94495617956904
C        11.56146779787484   12.00198841981002   -1.55796779806021
H        12.49071655599371   12.16737995647844   -1.03308379042493
C         9.38090654609582   11.00341140908916   -1.65402222555158
H         8.59809265969857   10.41996217171683   -1.19031687148040
C        11.38787798031420   12.49477698159907   -2.83774931944959
H        12.17851029662786   13.06452600349404   -3.30343685826915
C         9.20719623555659   11.50614312093975   -2.92926074035762
H         8.28815361774418   11.31137565070171   -3.46229102902236
C        10.20904774195492   12.25522647447913   -3.52460448288459
H        10.07450197666182   12.64427739171822   -4.52279139792206

