52
CSD_code = SABFIK | q = 0 | S = 0 | Stoichiometry = C17H30NiP2S2 | MND = 4
H         2.74671390862251    6.94060938425366    8.01332230136345
H         2.28918856311909    6.29997391315645    9.60841972807268
H         3.26095668440763    4.16446039443889    4.13147902768169
H         1.12901396591109    3.78803136072350    2.92345330244243
H        -1.02589170348381    4.22968271700678    4.06880225586658
H        -1.04468944086494    5.06381468208360    6.35451364306512
H         0.46349433050572    7.62592734030369    7.23976383247744
H         0.16232068816545    7.41183112007013    8.96771118220948
H        -0.92713077615653    6.68854905841729    7.78966211593984
H         0.15702973819392    5.04854125980696    9.90341556068518
H         1.07071470448021    3.78560129239948    9.07727682880755
H        -0.55048364225019    4.20887339554473    8.51844482392774
H         5.86354052536736    2.92666996586228    2.02057748591090
H         6.22080884978316    1.47285979876140    2.95610019145238
H         7.55233618897084    2.44294529111035    2.28711099226135
H         7.73562639752712    1.70805069794554    5.44475461213906
H         8.19632726540444    3.30263480462875    6.05361149550949
H         8.88203128552298    2.70854553989197    4.52182277681200
H         7.61580326535216    5.66597494779798    4.47207666505094
H         6.70145232253889    5.53570328666371    2.97145044393355
H         8.30720525466487    4.76795186308428    3.09189077180051
H         1.73171728985445    1.66912277634529    5.95042165526310
H         2.09980307040374    2.31974128547532    7.55109253453498
H         2.26316301513122    0.57345508226480    7.25161518654895
H         4.77606309523506    2.18749204320263    8.62042211940657
H         6.05689766463817    1.37849588932939    7.71073715813692
H         4.64004839063814    0.44635864472828    8.25798541945002
H         5.47594718330944    0.22106569527167    5.12044918082304
H         3.85775122512955    0.35929808452975    4.42201143234732
H         4.09846499033095   -0.56835070118473    5.91885027065142
Ni        4.79388118601111    3.76619466712739    5.49901869113643
P         6.58218896068209    3.49394012051156    4.26526644093740
P         4.12465822917958    1.84150485034644    6.32475865071218
S         4.79334619670042    5.91137989291206    5.86531940868582
S         3.58630755575347    4.75345727392885    8.37593555208505
C         3.62850372512215    4.89878850655879    6.57494085221912
C         2.35165721658996    6.07205880993558    8.54444765621509
C         0.98523748040000    5.66049733481925    7.99925342598939
C         1.08177100780281    5.09848708643602    6.58958347328092
C         2.29342112679014    4.80834807412206    5.95364942220869
C         2.28784686388102    4.35317419011103    4.62809578508746
C         1.11301150806368    4.14583268431581    3.94244361130857
C        -0.09080016364003    4.39558637983211    4.58331721858551
C        -0.09449570087691    4.86769817788285    5.88089132218228
C         0.11265660348226    6.92558854589183    7.99515396512296
C         0.37226075364328    4.60777390668298    8.93189560052007
C         6.55860086186331    2.48182632881230    2.73047910054948
C         7.99451822259050    2.72431192254230    5.15318057616316
C         7.39198304540195    5.01173107002387    3.63082464189321
C         2.38006237090212    1.56608124207352    6.81892321306939
C         4.98288938768063    1.41114200404426    7.88588687725589
C         4.41666926143765    0.30648601718484    5.35418952022622

