66
CSD_code = SABFEH | q = 0 | S = 0 | Stoichiometry = C20H33CoN6O6 | MND = 6
Co        8.04039439573827    2.87837171407702    0.89723196003728
O         8.45031765983364    3.26614992159796    3.57243506102426
O         7.28961032005359    5.48126900873006    1.13045478812466
O        10.54137052724321    2.82813358635282    2.29010129743494
N         8.58337681679525    2.79220351022093   -1.11222916779049
O         7.38794975010081    0.39979311267910    0.18211397494192
O         8.42069953373101    0.55234189021609    2.05567500536427
O         9.18463506691350    5.21375028689715    0.14664869863722
N         9.93075330509240    2.69528864901526    1.10698118433249
N         6.07211684774305    3.09891434392524    0.58325732537146
N         8.21041405467688    4.75065122686561    0.74764626539647
N         7.92120499721512    1.06979968498760    1.06936327892540
C         9.96849796276949    2.26525349070140   -1.25944040287234
C         5.30644225590592    2.85909406562222    1.84161998103482
C         7.59221205919767    2.32051474615439   -2.08226762053330
C         4.06058085777610    3.53525514964126   -3.04788107324923
N         7.54582408732258    3.08162633980565    2.68812388754827
C         5.50206516355942    2.53388736184071   -0.64205998358865
C         6.29274762224691    3.06990839587887    2.96914757681066
C         2.86806895322086    2.86465728882437   -2.80644958127050
C        10.64917661678418    2.42187361143822    0.08565830312957
C         6.24337273250227    3.02988688193214   -1.89136733605744
C         1.67635435405911    3.56028067780939   -2.69615383745867
C         1.66293100489227    4.93843569031998   -2.82380621559463
C         4.03444590915929    4.91861605819831   -3.18063345279272
C         5.36422524776060    2.79039244101437   -3.13320882903003
C         2.84540504345689    5.61618900671346   -3.06905717149853
C         4.17861931833624    3.89595746605052    1.93523621326542
C        12.12375182061757    2.25724145371966    0.23555654473738
C         9.99423527217384    0.78715901582595   -1.66129069802026
C         4.72485663490463    1.44401817695585    1.91541914285442
C         5.83598150610653    3.27014901853476    4.37897176958684
C        10.70686215374137    3.11508934005522   -2.30404425988974
H         0.73438783726952    5.48221696860040   -2.73639154103925
H         5.90833486783782    3.12357319085041   -4.01996619060637
H         5.57039779208401    1.44598172429079   -0.60081917923444
H         5.17644842463371    1.72000455965390   -3.23213849833876
H         8.69945851610530    3.79496762750335   -1.28230479590666
H         6.02199515814657    4.12049373329979    0.48510412685106
H         6.41325846270648    4.11006314449270   -1.79823693745360
H         4.95244302459081    5.45356276284491   -3.37808128934225
H         0.75728956002573    3.02446229242242   -2.50957163101071
H         9.76729400644861    3.00550169505859    2.97886189733337
H         2.87292359176160    1.78805002660932   -2.70776257452416
H         2.84082107742596    6.69082477099863   -3.17461384761353
H         7.44414422682248    1.24930779773924   -1.94591500743070
H         4.44830532262661    2.82209161930382   -0.72839190353456
H         7.94347779370328    2.50149459203669   -3.10647302255676
H         3.91446428977697    1.31961143046991    1.20210023048784
H         4.59780605896210    4.89928045640883    1.97862516839376
H         4.32878983604861    1.26880746356060    2.91159683667220
H         5.48285823486035    0.69185802587034    1.72391591317168
H         3.52183221167636    3.82445189625717    1.07030490252772
H        11.00230753675808    0.39651363641048   -1.55728755687800
H         4.90110122188716    2.75331855225371    4.57371794160689
H         3.57929888529436    3.73445615959903    2.82570042090997
H        10.79719504551605    4.14072231870307   -1.95116194796548
H        12.31826573034344    1.63198417640343    1.10679672796553
H        12.58624501387609    1.82307301320478   -0.64340392639060
H        11.70206179502480    2.72736470022133   -2.49693128543672
H         5.70255019769448    4.33292407495123    4.58114989672404
H        12.57141749646743    3.23013964110235    0.43848534405462
H        10.16035515648849    3.10993950057694   -3.24490273388237
H         9.68801741433453    0.66473971282908   -2.69680937425294
H         9.33818800538688    0.19791842949416   -1.02824228361082
H         6.60946635579885    2.89924769337318    5.04939349140224

