54
CSD_code = SABFEG | q = 0 | S = 0 | Stoichiometry = C21H28FeO3Si | MND = 8
Fe        3.64802260522204    7.03859033470019    1.76674134246630
Si        5.29879291270082    2.08958213359496    4.19822048534604
O         4.06062795310123    3.06123568780740    4.61479314157454
O         1.47692492829241    7.65447383222271   -0.07362145312972
O         3.24897369743102    9.92060402875960    1.85480395417425
C         3.25434458932449    3.99402512463983    3.91482760827807
C         2.11547081087926    3.22697458826793    3.20868471399906
C         1.18574646129054    2.82190923866686    4.37515148371050
C         1.52833356901114    3.74595422337926    5.55382666225147
C         2.50003696288714    4.79606728612158    5.00136071313587
C         1.80713345290781    6.06650197758681    4.49773544166042
C         0.53177844163506    5.87175983922677    3.67853991744675
C         0.71676242105792    5.16157797534546    2.37376788183331
C         1.38422400701858    4.03325545783342    2.17369892541727
C         4.14599956049726    4.83358406605694    3.03861854321949
C         4.97044331334790    5.79560208151173    3.61796797779286
C         5.78562312725276    6.61951890401006    2.81856621675295
C         5.93503859175775    6.39800431878807    1.42816123137304
C         5.14265774985452    5.39888486297437    0.85219192330786
C         4.21576573174830    4.68118294911682    1.63263217277989
C         6.98226533677898    7.12796751206121    0.64320936727507
C         2.31584795128396    7.31940359782693    0.65231333750465
C         3.45769762021380    8.78044211120212    1.88263182879979
C         6.88341985133156    3.04641877378399    3.72360921599766
C         5.55920818960553    1.12767418311599    5.81485928248419
C         4.91005023800029    0.89263366863022    2.75902588102505
H         2.53406404029360    2.33664658776830    2.73758769594172
H         1.36324191389460    1.78222964804523    4.64695897116169
H         0.14331808697577    2.91511386661691    4.07307462006033
H         2.03332295775436    3.17556741680622    6.33253985022204
H         0.64535217082656    4.20703825240880    5.99338343448471
H         3.21116992512923    5.08397814363147    5.78012053850064
H         1.54940662401342    6.66835802793479    5.37271420015550
H         2.50426303634548    6.66428378844558    3.88472873235348
H         0.12159340805611    6.86240561540936    3.47569123108952
H        -0.21141571586628    5.33120055894072    4.27100190419799
H         0.19714437121344    5.60154215608532    1.53458652238172
H         1.37272351424361    3.60876790759000    1.17819510163789
H         4.99508336296010    5.91629959141626    4.69041763340728
H         6.43014085637314    7.34252876289729    3.30215854014115
H         5.26346395041900    5.14678031898460   -0.19277804523633
H         3.65363292665455    3.89282918438672    1.15663861162446
H         7.94854008703263    6.63572196209073    0.76570131092706
H         7.07882386157799    8.15335326906771    0.99095618770495
H         6.73498195521986    7.13888129145505   -0.41484173377083
H         7.74299677865580    2.38428683050511    3.69570800025766
H         6.80364700381300    3.51492453726025    2.74633763155385
H         7.10102861884738    3.83021777676543    4.44349850453297
H         5.77136157546495    1.79394555436340    6.64418297939159
H         6.39449998491389    0.44301907111512    5.71907895561235
H         4.68311678545461    0.54483501507916    6.07881930669794
H         5.72016835322957    0.18514126221579    2.61231268097943
H         4.77105202703041    1.41919533431198    1.81808521326778
H         4.01018746503976    0.31427951117124    2.95112362424482

