95
CSD_code = SABHOT | q = 0 | S = 0 | Stoichiometry = C47H37AgF3N3O2P2 | MND = 4
Ag        2.00187378149837    6.76930330270107   22.68832287261973
P         4.38683019647484    5.90074312156052   22.87721051317125
C         4.82915386773706    5.21895991707903   21.24597800073607
C         6.00368759249130    5.49966546520625   20.55956789789905
C         6.22534807374714    4.92812680644281   19.31792176180000
C         5.28439105766514    4.08027400853896   18.75810743942373
C         4.11114599955518    3.79767609853335   19.44135677953878
C         3.88286011044624    4.36729365114421   20.67859021499770
C         5.80876132568709    6.97480438054670   23.25699640536474
C         6.74335306340855    6.69889276045527   24.24776472038905
C         7.77322100148611    7.59191310754301   24.49026039908895
C         7.87449745864988    8.76177019017410   23.75597057105487
C         6.93536056803272    9.04826654877455   22.77670542376543
C         5.90379157609231    8.16311994319829   22.53407945974983
C         4.68252489904954    4.45018433988702   23.93937129065129
C         5.63942816095690    3.48756989880793   23.63061512394972
C         5.82051709776787    2.40478473578944   24.47090116453471
C         5.05264724668488    2.27411093435776   25.61774849318628
C         4.09959566642804    3.23016754333742   25.92809386313401
C         3.91393722680241    4.31485561820569   25.09058582440312
P         1.86276367340051    8.85287232967818   21.30510314357333
C         1.80051166750308   10.45865545268255   22.16082858649197
C         0.87430780221954   11.45361945897795   21.87362923279450
C         0.89430939565708   12.63829883762722   22.58951276148814
C         1.83117531806685   12.83553503792322   23.59009734450146
C         2.74951564459373   11.83990371761645   23.88754810571966
C         2.72902783297825   10.65259592277263   23.18256136795358
C         0.44382452383308    8.91734181101887   20.16809447208020
C         0.47144597664503    9.62649045118591   18.97082736753405
C        -0.63974132017574    9.62350974405500   18.14751683483907
C        -1.77570126749775    8.91635364245368   18.50950137643883
C        -1.80628687102891    8.21098246415642   19.70159970888216
C        -0.69861895238191    8.21025065238325   20.52913230543970
C         3.25393785907801    9.09475315052134   20.14911235086990
C         3.97080753773637   10.28012360984605   20.02846386562187
C         5.03967530069289   10.35183331695755   19.15167349871221
C         5.39756224115971    9.25060321813230   18.39183570633585
C         4.68359797379130    8.06777585314737   18.50644576822275
C         3.62129904389637    7.98885491621397   19.38514419691650
N        -0.20488039619805    4.57905177882998   23.29154848309239
C         0.01797269364157    5.07626487261271   24.54835874224279
N         0.79043229057208    6.16954932490126   24.64727458222191
C         1.01199347829132    6.68070972820283   25.85742385817993
C         0.49929313242470    6.14663264919099   27.01882753771157
C        -0.29871913627795    5.00875823582593   26.91863600277425
C        -0.54561497761857    4.46494693018358   25.68089769366506
N         0.41144195252131    5.14203297991524   22.19583180876257
C        -0.06055072993007    4.54861329941679   21.12847270873463
C         0.38326284553415    4.93244020919609   19.76879282069071
C        -1.01249081720512    3.55303047873441   21.46157839146397
C        -1.69175212310615    2.75334141306320   20.51439978245832
O        -1.55726078085254    2.79950812185010   19.30086664294742
C        -2.70203116496682    1.72581246763703   21.09365403457888
F        -3.29247879183033    1.02964867839262   20.10750405033852
F        -2.12069059510540    0.81653841350965   21.89052696741413
F        -3.69690938248219    2.30440788523407   21.78319538281398
C        -1.11489325165741    3.55787626558339   22.89747231078917
O        -1.77592288434817    2.90319364535688   23.67778297003683
H         6.74256691552896    6.16119805728734   20.98922522847339
H         7.14087998570063    5.14577224814255   18.78696035795819
H         5.46354067880394    3.63931329319209   17.78882949740061
H         3.37692512592708    3.13584631577639   19.00716531216155
H         2.96828515868771    4.15799142860662   21.22189776162590
H         6.66753076199874    5.78911982891387   24.82611271356961
H         8.50107929972555    7.37187020441731   25.25739229487947
H         8.68184486216053    9.45226889552093   23.94918830872435
H         7.00462573994663    9.96212469394829   22.20466099283754
H         5.16409790829659    8.37994486205467   21.77364679410687
H         6.23575567570596    3.58826776167520   22.73420871759956
H         6.56179729691157    1.65720210109496   24.22945144087998
H         5.19515838644645    1.42335786680782   26.26702118752190
H         3.49637275136782    3.12768711358484   26.81796334718845
H         3.16750045710594    5.06356330691192   25.32151730111197
H         0.13965040589489   11.30145923374652   21.09587286559750
H         0.17385362180113   13.41077326239678   22.36470163588827
H         1.84255798327627   13.76265752768707   24.14320938318453
H         3.47576871514596   11.98953008915565   24.67295560502827
H         3.43551161386249    9.86277499703625   23.41381351443936
H         1.35978414852706   10.17348669741331   18.68557329759641
H        -0.61866860537528   10.17241676664429   17.21751079236098
H        -2.63628214772031    8.91190339223362   17.85782917282300
H        -2.68826678685900    7.65487278005681   19.98119938778871
H        -0.70349311942649    7.65172984720288   21.45761490517843
H         3.69803395643844   11.14192601613127   20.62120338776920
H         5.59485746790309   11.27417001720742   19.06126544829887
H         6.23330376217429    9.31364323308845   17.71124567911776
H         4.95909939391331    7.20528699751558   17.91851127837042
H         3.06984868407170    7.06246702750491   19.49340301301356
H         1.63467175888305    7.56728387349050   25.87997103039100
H         0.71307487018174    6.60245812431384   27.97215159251790
H        -0.72114095064424    4.55567756087379   27.80291970582036
H        -1.16339686354886    3.59216814886760   25.55350660308404
H         0.79088800233409    4.06666728463908   19.25156688532564
H         1.13119017748674    5.72502328043408   19.83164330135200
H        -0.47034780418598    5.27760252820891   19.18846927405808

