44
CSD_code = SABJEL | q = 0 | S = 0 | Stoichiometry = C18H14Cl4NO6V | MND = 5
V         3.68577327786454    4.35395890856962    4.06287004502181
Cl       -0.42737286166778    7.84589018450979    2.70625840049566
Cl       -1.73900354036807    6.58165276841748    0.15256435495411
Cl       -0.73309765380548    3.82414741882875   -0.89558922516156
Cl        1.58781349375825    2.35083470601051    0.63297182968244
O         4.77957164820598    3.29403339554274    4.11667417420353
O         4.18153305051423    5.60537619636916    2.88070421847161
O         2.75943266171447    4.05889167524212    5.47106239008299
O         1.69241850218510    6.18444628698597    3.89894003370081
H         1.27600894330001    7.05148122534515    4.05805860756058
O         2.54030074448380    3.78322036803016    2.94008073843132
O         4.97782256517680    7.62299290860007    2.38249443521695
N         4.71219808751542    5.66766717098858    5.25400043971968
C         4.83831293507616    6.67725971253116    3.11918043508567
C         5.47378788484172    6.64269299007311    4.53094907205970
H         5.40053940011870    7.63867483982165    4.99419829133592
C         4.66054778509403    5.73139167599062    6.53442581176706
H         5.21464881291536    6.51804838825383    7.05650223980674
C         3.90182143042555    4.84530994872590    7.36073222455779
C         4.05602080906808    4.82677711893481    8.75456092149072
H         4.79077369063078    5.47719170784731    9.20693898794923
C         3.30069812263257    3.98206230338656    9.53231744834913
H         3.43422890102765    3.96244027796085   10.60238256971672
C         2.35533474049945    3.14812243724982    8.93422123881526
H         1.76317269284644    2.48738933730553    9.54940618422883
C         2.16283024765904    3.15957229107090    7.57196618680707
H         1.42959191217381    2.52128915995205    7.10131202549219
C         2.93608148032423    3.99980234220106    6.75173296556432
C         1.12443617858397    5.65898817872788    2.78467590882917
C         0.10319686293340    6.31063049243465    2.10544021686055
C        -0.47984130934841    5.75530738741550    0.96883846348565
C        -0.02988585128341    4.51988995584268    0.50234922463231
C         0.99007746549068    3.85722467212082    1.17373025978094
C         1.59132673078473    4.40261150355783    2.32870144900088
C         6.98165314940749    6.29759085872812    4.36557334273418
H         7.41157422677493    7.15372556832166    3.83231079525012
C         7.20586210994810    5.03842346482228    3.53344676030060
H         6.78485345294174    5.14886570507043    2.53528924841917
H         6.74284564030826    4.17214377532885    4.00896913672082
H         8.27347935135914    4.85466925142716    3.43370091981828
C         7.66754588442088    6.16259393585941    5.72277218294994
H         7.53393362366339    7.05783085260353    6.32742814188019
H         8.73418757390169    6.01446450232283    5.57436768366369
H         7.27886514590218    5.29972215066966    6.26168922026776

