34
CSD_code = SABQUI | q = 0 | S = 0 | Stoichiometry = C16H11Cl2N3ORu | MND = 6
Ru        5.69951654594017    1.64866220728505    7.66727744055027
Cl        4.80932252578327    3.86330264548744    7.63242489476505
Cl        6.61209401880329   -0.54777682245500    7.45520776863569
C         5.53056458077323    1.50439341691519    9.51261981809536
O         5.42597745653443    1.41745705761564   10.64813733897187
N         3.90067261090171    0.93476873702326    7.13494326470961
C         2.91144888332551    0.50612403351742    7.91524663548095
C         1.70909596233708    0.03626129816033    7.41948589808789
C         1.51353233648751    0.00545606305260    6.04549560762079
C         2.53441344849625    0.44829792578500    5.22631769229890
C         3.72074021229392    0.90930157458913    5.79158850657685
C         4.85681023962124    1.40011628560004    5.01129819691662
C         4.95657980618991    1.48625828195620    3.62409070197178
C         6.12707167830597    1.98559050947509    3.07317005970826
C         7.16809397543245    2.38798839261332    3.89609102684995
C         7.00805006336700    2.27660450860420    5.27585597015330
N         5.87256376414555    1.79165435011914    5.78526187629398
C         7.97306562728667    2.63854771377146    6.31424526608969
N         7.55379212210195    2.41230026976352    7.58335528404245
C         8.37571632843454    2.71347922721505    8.58575215150217
C         9.63632676981823    3.24818739942478    8.39291921939100
C        10.07531517027743    3.48693268185463    7.09781376324461
C         9.23014532417015    3.17625237801469    6.04968010245958
H         3.09195605094772    0.54165778958202    8.98269329748854
H         0.94237992838343   -0.29827873383502    8.09915197195522
H         0.58787959812172   -0.35475050427567    5.62456392344640
H         2.41899222241639    0.43973865824558    4.15460164454383
H         4.14517128983560    1.17238597353884    2.98861225325781
H         6.22800409040794    2.06119332718239    2.00152594362950
H         8.07936070749146    2.77649212722148    3.47257216268230
H         8.00647004047426    2.51752456413177    9.58503210212063
H        10.25965983623603    3.47297158051259    9.24303505417634
H        11.05217925039044    3.90480767966514    6.91103113401278
H         9.53623753446845    3.34759740264257    5.03040202827129

