32
CSD_code = SACBAB | q = 0 | S = 0 | Stoichiometry = C14H14MoO3 | MND = 9
Mo        1.60218898199225    0.49360978567599    2.60515846393302
O         1.83476513574254   -0.46692619559703   -0.32636154781809
O        -0.67455542346024   -1.54363142886558    2.20439480605535
O         0.57282069345127    2.72911208170293    0.74991663613636
C         1.77708042957047   -0.11573440746841    0.76579354481734
C         0.15802303035083   -0.76563425843790    2.33016941302708
C         0.90159019438801    1.89188819343338    1.46196815542592
C         2.55548191423685   -0.48316958630245    4.44302099070628
C         3.58228416156494   -0.40494361086757    3.48503770439985
C         3.81622511242265    0.96781246893628    3.19713271483053
C         2.92929826107540    1.73542087119430    3.97698763579791
C         2.14583169144130    0.83956005846757    4.75530009355595
C         0.83171323872166    1.16313742356332    5.40425224967663
C         0.77995854553245    2.44205939518599    6.23929740331753
C        -0.67980513076962    2.85000658258100    6.41537870480698
C        -1.34967903128192    3.13183182547241    5.05935557125639
C        -0.50368105515083    2.64531223817523    3.86982539402747
C         0.00419086687993    1.23981120257784    4.11701758730198
H         2.24194323599453   -1.37635281383937    4.97206802655663
H         4.19977839134319   -1.22702667864997    3.14550353814743
H         4.65060486421417    1.35095210000823    2.62240552071991
H         2.97020866634672    2.81216689852031    4.09018648024246
H         0.50719203082582    0.32032788073394    6.02853476379777
H         1.33233347231560    3.24864790800189    5.75638902261461
H         1.24215909808721    2.26326876105492    7.21280136675545
H        -0.74166823135046    3.72999320373313    7.05710592701177
H        -1.20274865510628    2.03810480468557    6.92510395084800
H        -1.52243306502026    4.20247502491191    4.93871402669831
H        -2.32254811476598    2.63944923757840    5.02436220755548
H        -1.12158503434166    2.67195957559625    2.97062719789463
H         0.32942928602927    3.33438051677107    3.71683655376379
H        -0.84669756127991    0.55643094146628    4.16781589613949

