73
CSD_code = SACDEI | q = 1 | S = 0 | Stoichiometry = C37H30ClN2P2Pd(1+) | MND = 4
C        -1.48612050862764    2.33407655451689    3.93332797976655
C        -0.45708981221618    1.41006378449997    3.75204873317243
H         0.45421233994965    1.50932638051995    4.33065013399921
C        -0.61776941384512    0.37376526546867    2.85369892472664
H         0.17447493577296   -0.34524949834149    2.71179025772668
C        -1.80464405958345    0.25093488004387    2.14595981108467
H        -1.93247959136138   -0.56370050210413    1.44971828441487
C        -2.83146073536016    1.16101778647306    2.33738688092388
H        -3.75641945323740    1.05555546375955    1.79102928765456
C        -2.68146892155414    2.20365500936766    3.23518096468917
H        -3.48608615893347    2.90738395152621    3.39587888209488
C        -2.72756193113206    4.61729891409411    5.26609805615152
C        -3.50227570948177    4.46321348088105    6.41643102394107
H        -3.19097767105787    3.74212873191514    7.18594743588940
C        -4.66214587606161    5.20121054758551    6.56798132954075
H        -5.26771543599620    5.08341776232392    7.45398642447873
C        -5.04730704921106    6.09171244252082    5.57660744054602
H        -5.95295911744423    6.66660097209970    5.69429759695602
C        -4.27790377956897    6.24524245947707    4.43350889156423
H        -4.58579122475232    6.93716717879832    3.66445212452367
C        -3.11593931267750    5.51071769999231    4.27352535269976
H        -2.50793168559374    5.62443201189343    3.38628472289099
C         0.02645282084801    4.74185879376450    4.46939539557805
C         0.52299392913176    4.58176936053526    3.17867910925612
H         0.13004735135861    3.78539281798171    2.56316945669562
C         1.49687293036057    5.42704269187576    2.68076531696763
H         1.86683895737771    5.29089482563945    1.67702246413620
C         1.98929686120142    6.45116672923276    3.47369768194934
H         2.74814632894149    7.11680934299831    3.09412684892567
C         1.50443641201295    6.62615150906126    4.75636100183900
H         1.88721395375892    7.42932343631418    5.37057117206160
C         0.53389153603646    5.77235819387171    5.27279300793050
C        -0.47398030152179    5.26180433617015    7.50042552639393
C        -1.43558954802607    5.47492025053266    9.79442530638016
C        -2.27922147886188    6.34693314948912   10.47649572395410
H        -2.51988047337941    7.30554036018912   10.03827383963913
C        -2.81899152190188    5.99550172111209   11.69966904580697
H        -3.47778214533002    6.68057873175452   12.20928034977272
C        -2.50988322156431    4.76958533186273   12.26683536941599
H        -2.92557028905089    4.49273611647985   13.22260262171563
C        -1.65906602489240    3.90309435792663   11.60618140564844
H        -1.40696311388574    2.94929012446579   12.04682910910236
C        -1.10731826562282    4.24133121160542   10.37360731636612
C         0.05022826579735    1.58799047229299   10.42654896163929
C        -1.08478243691523    0.77738668267846   10.40969929315333
H        -1.95640643295206    1.09434911795217    9.84866274170726
C        -1.07831529156930   -0.42366594478624   11.09150990202091
H        -1.95262843206020   -1.05627528095336   11.07848612924047
C         0.05848304383658   -0.82136740272740   11.78004966217425
H         0.06550278782707   -1.76391214586126   12.30571827766119
C         1.18942369487165   -0.02100754054500   11.78602317755771
H         2.07439569384912   -0.33902495026131   12.31607826844576
C         1.19459580170284    1.18420290901211   11.10559515461203
H         2.08034874635613    1.80375240635751   11.09743893026516
C         1.61579846104031    3.88884769002446    9.54039695594660
C         2.38530237885884    3.83014841346346    8.37762392748096
H         1.99309507903836    3.30402670692869    7.49540583827165
C         3.63875671955903    4.41406481650068    8.35234516134589
H         4.24049440608921    4.36720152923807    7.45717648589132
C         4.12210767808430    5.05833480291483    9.48175278666588
H         5.10028276214186    5.51375261095217    9.46231436992844
C         3.35770974818792    5.11791563250540   10.63686840832523
H         3.74144708077916    5.61831051243436   11.51292017239556
C         2.10290290219993    4.53487516059739   10.67155064111940
H         1.49860617505848    4.57779528187955   11.56760347419025
Cl       -0.77330312947769    1.07192673213817    7.08101995855182
N         0.06252345224040    6.05466063001385    6.56947646981041
N        -0.89898213473919    5.93091306015149    8.57496999963779
P        -1.21393450303565    3.61917241651383    5.16813881708280
P        -0.02271276520876    3.10995477996916    9.46217090667367
Pd       -0.61929242546689    3.28298293657897    7.30542064375784
H         0.21909276396159    7.03309972359709    6.81988676997706
H        -0.90412461501729    6.95153357028361    8.52115010549453

