104
CSD_code = SACHOW | q = 0 | S = 0 | Stoichiometry = C41H51CrN4O5PSi | MND = 6
Cr        0.92855288038030    4.85014000098835    1.33753904019780
Si        2.62120784502219    7.14899449531450    4.35406890273469
P         2.33237697655708    5.20399025970363    3.46442200257784
H         3.65668814477835    5.12442042164181    3.07128143647128
N         1.34010232994417    7.83789657001845    5.28072552758851
N         4.03709845942438    7.33459400587860    5.34753457216040
N         2.97009417387359    8.58072401124535    3.12876276073481
N         3.62233430006991   11.59345514887519    0.34626328824737
O         1.93832507723792    2.03942171955562    0.93719315956455
O        -1.74100956204209    3.97379116169174    2.39211714912705
O        -0.56869000369815    4.37719847525238   -1.20575250738259
O        -0.35844307553280    7.53938731555103    1.02294949823934
O         2.97394174923954    5.78298459774845   -0.65459262527315
C         0.51588070388633    8.96343337451070    7.23001667216120
H        -0.50930849225846    8.78168588821779    6.96572055145564
H         0.69954875725503    9.49021377566566    8.14844228623856
C         1.53843035167793    8.52900558478488    6.47766122471309
C         2.90309571544195    8.77480358410045    6.89647385061209
H         2.99572731579597    9.46126753032124    7.72486346907048
C         4.02665321658074    8.21081962382998    6.42450862237659
C         5.36738024823917    8.55310095497095    7.00609822645281
H         5.25424976075823    9.21711139551277    7.85843926038256
H         5.98424618560708    9.04608096928702    6.25425038559396
H         5.89527705206674    7.65558229874228    7.32250056948148
C        -0.00329227227495    7.63735652669754    4.83649195715515
C        -0.64539239424732    8.65507620642496    4.12197657512980
C        -1.92390498826990    8.42411190705814    3.63317214346598
H        -2.42787782818418    9.19458482171206    3.07047814717616
C        -2.56235088142962    7.22214983501048    3.86081730322273
H        -3.55275303638308    7.05126803487576    3.46586994887140
C        -1.94346671869259    6.25018701657933    4.62116879187766
H        -2.47327614522392    5.33529613551573    4.83196016223781
C        -0.66089528749100    6.43429655502291    5.12166916512641
C        -0.06030463838583    5.39868984704618    6.04422310145190
H         1.01898136729958    5.56365415293842    6.09544292907963
C        -0.64297258984265    5.58239762387702    7.45073068013031
H        -0.40467057317662    6.56937539530828    7.83949254321532
H        -0.22904924916053    4.83716616563765    8.12668774387463
H        -1.72494712718630    5.46812340486433    7.43147077515586
C        -0.28675028843813    3.96466267404781    5.57042297447991
H        -1.34163253546412    3.70331091194619    5.56649278880994
H         0.22607367282113    3.27515305633909    6.23683239865520
H         0.11312641791517    3.83144564784893    4.56690043434493
C        -0.01991506791487   10.01852146320382    3.92617481522278
H         1.01346533473672    9.98279717071981    4.27985330557909
C        -0.01378039616689   10.44443617549731    2.45693029921189
H        -1.01963719987696   10.67616039048522    2.11761010173975
H         0.38035929710103    9.65300123722611    1.82578269547254
H         0.59979465064201   11.33590010942511    2.32822391232891
C        -0.75887238268309   11.06553590463781    4.76608175783123
H        -0.32187239238836   12.04964601619295    4.60528275770057
H        -0.68400782552788   10.82400646477169    5.82297930442986
H        -1.81041917867008   11.10552269728236    4.49286717556917
C         5.08388407358505    6.36832039020735    5.28982923052095
C         6.13353532674700    6.52549539480037    4.38112187338198
C         7.13225680826022    5.56219176260015    4.33344325618318
H         7.94110392066768    5.66571392121768    3.62643085963588
C         7.10804883926892    4.47395725140783    5.18170357149775
H         7.89428262180559    3.73498349758438    5.13789505156063
C         6.07354093337399    4.33426774941242    6.08499102777891
H         6.06209657276286    3.48141791561918    6.74592173328055
C         5.04553065585044    5.26495199164415    6.15091308164184
C         3.92431766744780    5.05569805444292    7.14029009796991
H         3.18344294660953    5.84871955555302    7.01236872370923
C         4.43898699174211    5.12091165195460    8.58116272330719
H         5.18705751577910    4.35282416537849    8.76300241254280
H         3.61459810830629    4.96812070485539    9.27398052163842
H         4.88337146216153    6.09103220720954    8.79166307968392
C         3.22891085163942    3.71915365880254    6.87849476447998
H         2.88196802923063    3.68044782133871    5.84768223298561
H         2.37463882551543    3.61277186695728    7.54294837159885
H         3.90222640569487    2.88382029468471    7.05292181492784
C         6.20560617529827    7.71299116550619    3.45054218088541
H         5.40827777895239    8.40924475730894    3.72247712590769
C         7.53757189822175    8.45659585454912    3.58290729194973
H         7.73234503437480    8.71737610113519    4.62102298734720
H         7.51315109669232    9.37222887016100    2.99438234136795
H         8.36416907317389    7.84823308094373    3.22651809313092
C         5.98903148871136    7.26278760391104    2.00435161151351
H         6.79601623407017    6.60787594155622    1.68499604835744
H         5.95903325024231    8.12222896075430    1.33644516531196
H         5.05291716260224    6.71587534760573    1.90959927106832
C         2.85138275167439    8.34990339365683    1.82021270851301
H         2.56301028415466    7.34112208301939    1.55440341950734
C         3.06364444178593    9.30389789832555    0.86594494761477
H         2.94382436720721    9.02569645912000   -0.16588694265121
C         3.42551263820114   10.61654534332108    1.24570767946464
C         3.56753936221449   10.82875684031668    2.63904131097330
H         3.85214057807604   11.79017661326367    3.03000367602859
C         3.33102866594177    9.81109691299986    3.51912769195752
H         3.43646471528582    9.95690633667687    4.58440698886346
C         3.42282562678097   11.33804510582026   -1.06285170466452
H         4.12298639434809   10.58204488450142   -1.42618042059817
H         3.58658438508866   12.25274996670625   -1.62556438321152
H         2.40395639600955   10.99458328599877   -1.25566026306708
C         3.99060270921122   12.92387016419988    0.77205362903849
H         3.21491307946326   13.36365579017864    1.40450578309740
H         4.12108747130611   13.56129458027278   -0.09788744255197
H         4.93177373175918   12.90969635100211    1.32698645685748
C         1.59733358022947    3.10468090530132    1.20391086952963
C        -0.65758665208492    4.28846313882158    2.16430918002797
C         0.00568608737218    4.53877260893880   -0.21362748315783
C         0.17545007243243    6.54242473809387    1.27377434309708
C         2.28560171112810    5.42394234852219    0.20638939815621

