88
CSD_code = SACJOY | q = 0 | S = 0 | Stoichiometry = C29H53Br2N2NiP | MND = 4
Br        6.99082998820493    1.61223000187244    1.24317865489354
Ni        8.48386605020653    1.16775086085851    2.98124378572641
Br       10.20388132369773    0.85199615565678    4.52455040350535
P         7.54589745213161   -0.84964015833077    3.40217201378855
N        10.20579299273460    3.22288846961680    1.73470610551945
C         9.26116992754996    2.89441822171598    2.64414675928071
C         7.88366307932432   -1.55098099116982    5.10625639251836
H         8.96992524973002   -1.42526097283730    5.20435315957753
C         3.49556470371565    0.17637679649297    3.13870798055028
H         2.91187560329798    0.95410146406805    3.63622492364901
H         3.57323593801120    0.44125322588420    2.08203343662077
C         8.22778202996110   -2.20102992837879    2.30528870933974
H         7.69997846019392   -3.12461195726390    2.57335385283944
N         8.95424327609074    4.03440538566935    3.30532538096381
C         9.72439318443016   -2.40158418033935    2.55513443088196
H        10.26486785750827   -1.48313818015686    2.31909168626490
H         9.91185211930896   -2.63280479916467    3.60504396954721
C         4.89665408188486    0.11867028543696    3.74173423054083
H         4.81908296865720   -0.08178678027445    4.81163598130985
H         5.37702550795152    1.08882373413831    3.61457753278668
C        10.83525355611669    2.39777154587281    0.69398707793425
C        10.26900602307548   -3.53457619399274    1.69031910624856
H        11.33922378620116   -3.65049095391254    1.87403727334188
H         9.77960466245002   -4.47196577503278    1.96859979678393
C         3.63132029854807   -2.27958615579401    2.64976727882946
H         3.71724864106228   -2.10249246062358    1.57510842304553
H         3.13920808903614   -3.24483317108343    2.79180044669452
C         5.71100151230458   -0.97337552344847    3.04609084114244
H         5.66309180576024   -0.75463644909837    1.97105925017360
C         6.98082941811189    3.15909268365656    4.49365501234427
H         6.30593773901802    3.27822185913910    3.64704790119811
H         6.40637808943384    3.24434606891230    5.41286186034405
H         7.42600370574498    2.14856199582895    4.47770010737463
C        10.47808911483109    4.56232577687985    1.82552684211853
H        11.18324306066202    5.05992785893407    1.19652268170331
C         9.70991152212503    5.06439721769492    2.81059109023479
H         9.65429152620193    6.06341841951377    3.18382391118854
C         5.02676119527119   -2.31777704213099    3.27270738579183
H         4.92054041701109   -2.50792258855281    4.34184955680700
H         5.59648013404207   -3.13741321107925    2.83213123758721
C         2.79434419500788   -1.17085596550139    3.28087940976411
H         2.64418358928321   -1.39135434938056    4.34125515843804
H         1.81136840674670   -1.13154760550516    2.80717722524682
C         7.24903432078842   -0.68982906086784    6.19846279747297
H         6.16939446705435   -0.85127935974281    6.22577252122704
H         7.43049051166396    0.36964076238417    5.99861740899797
C        12.30782569830611    2.80254867356361    0.54893178758040
H        12.42364881890993    3.74825751772901    0.02637286115159
H        12.82818360734722    2.04234709835564   -0.02780949749151
H        12.78099819086622    2.87369491506240    1.52612915787748
C         7.58434010530276   -3.02196746796258    5.38654747361538
H         6.50982367898228   -3.19929030960180    5.42591479758298
H         8.00650571744177   -3.66943265361601    4.61723120247206
C         8.06262067215396    4.23372924887890    4.45575551740875
C        10.01752292583485   -3.25433355178569    0.21297736838805
H        10.39446170022917   -4.07995664276360   -0.39439434706287
H        10.55556313837696   -2.35016406560770   -0.08121504360353
C        10.08239631094430    2.64346647173178   -0.61777554978755
H         9.05146374338288    2.30850417462105   -0.53665336679062
H        10.56305359013307    2.10247054019605   -1.42828938041897
H        10.07740322370768    3.70333700865293   -0.86297765360145
C         7.97849244579717   -1.92326040709390    0.82193150338440
H         6.91052890933888   -1.81214466272816    0.62590088664216
H         8.46625199544580   -0.99224823343983    0.52632512225153
C        10.79200928187185    0.92013647837328    1.06829721516052
H        11.47585063017386    0.71757015664261    1.89082650068430
H        11.08402251495382    0.31739908960052    0.21173075712370
H         9.77253653214193    0.62200782913973    1.35886385076105
C         7.36603068698143    5.59452044706817    4.32939520990515
H         8.03656895021919    6.41946380986958    4.55422585651773
H         6.54252884562478    5.63817168159861    5.03734077351242
H         6.96290882377867    5.72477116538686    3.32720573764376
C         8.52583502472124   -3.06030410808915   -0.03590950236418
H         8.34664799390080   -2.83847078292782   -1.09000705064846
H         7.99557030270893   -3.98557912324327    0.20508815410822
C         7.61096712927566   -2.53337691577439    7.85301848056076
H         6.53743079579227   -2.72338981146922    7.93697803975011
H         8.07123071213646   -2.79849744382878    8.80692476041719
C         8.91636805285777    4.18668353794096    5.72709304788099
H         9.38901586483825    3.21385836821111    5.83656947946141
H         8.29535169135648    4.37302961183739    6.59899094046850
H         9.69884708122531    4.94152701340141    5.68947245194322
C         7.84212182318452   -1.05510206401818    7.55602319131533
H         8.91363268838984   -0.84473186794611    7.54578466229994
H         7.38678409702966   -0.44197663877788    8.33706167386697
C         8.19088575881579   -3.39950029869707    6.73890985355633
H         7.99423121270733   -4.45412488308839    6.94646772363983
H         9.27411745066868   -3.26178788197070    6.70173436070193

