102
CSD_code = SACJEO | q = 0 | S = 0 | Stoichiometry = C45H51Br2N2NiP | MND = 4
Ni        3.05788055982259   12.15444557111316   20.20611899792613
Br        3.66463573771225   14.02476006634379   19.04452896747224
Br        1.77271371369752   10.64943443023323   21.39646370648887
N         3.85269514923396    9.87527962391337   18.77157478420877
N         2.40549506404124   10.88240679780975   17.53199406581231
P         3.14542754442122   13.29108571552401   22.05075574263933
C         1.56342454318737   14.14023157270046   22.31272810288919
C         1.28805163476438   15.29811748676278   21.58725626956709
H         2.03673569157237   15.71277043820578   20.92520038663029
C         0.05094950217555   15.90451409447588   21.69977987800202
H        -0.15574032844734   16.80458949505041   21.13947525842937
C        -0.92167726638331   15.35354470615635   22.51840859452165
H        -1.88827844035828   15.82828016969531   22.60327823026379
C        -0.66097833746166   14.18498638099384   23.21534319129024
H        -1.42484207994529   13.74260872738353   23.83789780627797
C         0.57401808628150   13.57201670324062   23.11000119700470
H         0.76719233641828   12.64633329078413   23.63440131715707
C         4.42725441749099   14.57600486989860   22.27427744175010
C         5.72412965818464   14.17241183588000   21.97324300655849
H         5.88707226779651   13.17277880074768   21.58350753316451
C         6.78842200163483   15.02966023589356   22.16647177585224
H         7.79184363159067   14.71287640016899   21.92166515321156
C         6.56220279559506   16.29897221295990   22.67395633608051
H         7.39006101001234   16.97647849641189   22.82226466686512
C         5.27579548254573   16.69782119601062   22.99350771841697
H         5.10062840199796   17.68485646815753   23.39654440479478
C         4.20651654528357   15.84042593024760   22.80010325747090
H         3.20649592462612   16.16091881556903   23.05560455156700
C         3.50930022032597   12.46334169812165   23.63861096833220
C         3.20224578811904   13.07808332900649   24.84724810743071
H         2.66752055765629   14.01816256492842   24.85490291822308
C         3.57658742929664   12.48201342200507   26.03641076625921
H         3.32579850469410   12.95531653056041   26.97473978270827
C         4.27400619067545   11.28413539602436   26.02798540694986
H         4.56212311085945   10.82216764420726   26.96087157206534
C         4.60484503675403   10.68445953747101   24.82543580478147
H         5.15562066133895    9.75567674177587   24.81176241685847
C         4.22708049514631   11.27535610928907   23.63392210852794
H         4.48309595246132   10.80171799614054   22.69473295118316
C         3.09420980392859   10.99303096288257   18.68534484740900
C         3.61720059927615    9.05895440360198   17.69836045814012
H         4.10806452549656    8.11648859767408   17.57517288630520
C         2.70876539055373    9.68962794747881   16.92231986500030
H         2.25200145937210    9.39944629504806   15.99920471860239
C         4.88249045446549    9.71835374784698   19.74738947407888
C         5.99416917712045   10.57667113048089   19.65983155575260
C         6.95363016318167   10.49782142871146   20.66061568564211
H         7.80666390917441   11.15636096355862   20.63672670518979
C         6.84197411993288    9.57237541435964   21.68163034126999
H         7.59359449036971    9.53524814827018   22.45653856574519
C         5.79496899934694    8.67241746687053   21.69085428791667
H         5.74906612767120    7.92014567681139   22.46136462332197
C         4.79344755309892    8.72516131385713   20.72807535448364
C         3.70214834769184    7.68156399868759   20.71501218066312
H         2.86871897157934    8.04329449233100   20.10700017438440
C         3.15240250501216    7.37087478253137   22.10733426641523
H         3.88350365698024    6.84733563467047   22.71793094459320
H         2.27593542025225    6.73551714033597   22.01265029792474
H         2.85177928147120    8.28336867366087   22.61211125899203
C         4.26041193918427    6.39784445613363   20.08850118732773
H         4.67000845106676    6.57789777269393   19.09673089260993
H         3.47335545815578    5.65221480426761   20.00659978214613
H         5.05705726627487    5.99271710908139   20.70918723081396
C         6.22611580189930   11.42906578332322   18.42871140602074
H         5.27160172338457   11.80637857785205   18.05297696971111
C         7.11991800461079   12.64581677405511   18.65285555020547
H         6.73909748020407   13.26793334346722   19.45731696951243
H         7.12561239861417   13.25022367453527   17.74900429476386
H         8.14535339062431   12.35733471261664   18.87322011920373
C         6.84307913166698   10.52745074832548   17.35132067127086
H         7.79413878560743   10.12597901000073   17.69691585334874
H         7.01895623900485   11.10192519629887   16.44490533579318
H         6.18885538022111    9.69241488612926   17.10717731798017
C         1.67957941598135   11.90526602924795   16.84971351462834
C         2.29543227217004   12.51502851838496   15.74916093784307
C         1.58125202608870   13.48049918540116   15.05387657897814
H         2.03444118242197   13.96619076348943   14.20441572687791
C         0.30345512346597   13.83686821358855   15.43612801790133
H        -0.23397483221223   14.59360386336472   14.88425948319164
C        -0.28147881282644   13.23270577594161   16.52952157033594
H        -1.27481952413230   13.52510514000651   16.83102358787221
C         0.39036917487796   12.25418996205493   17.25114297049472
C         3.69649061978461   12.17375536198408   15.29430942346022
H         4.14393366307324   11.45113188128412   15.98106296274411
C         4.58739365783469   13.41803153929293   15.29945809155805
H         4.26150115299364   14.13783149004434   14.55440110785289
H         5.61411128161799   13.13732560355373   15.07400189870232
H         4.55835830588861   13.89760109106334   16.27453877976912
C         3.66713934876079   11.53429813678647   13.90303398446857
H         3.27229458996550   12.22955620650880   13.16693301518800
H         3.04311507860478   10.64259553578693   13.89676059919971
H         4.67346358127005   11.25126603146423   13.60191006425669
C        -0.25680769289668   11.65228305888703   18.47231399361123
H         0.33577744916335   10.80046010688011   18.81832981373904
C        -0.25570425871711   12.71269657392567   19.57494576621230
H         0.77665791621143   13.02637524106702   19.77716760091939
H        -0.68338983178648   12.31403620288788   20.49145602694325
H        -0.81631248906205   13.59487234125106   19.27473284155843
C        -1.67161303692723   11.14466686545181   18.19749457928208
H        -2.35400722695360   11.96304874450627   17.98419159244060
H        -2.04075336766919   10.61397714624710   19.07162713244378
H        -1.67495036840048   10.46143681926348   17.35062111942691

