120
CSD_code = SACJIS | q = 0 | S = 0 | Stoichiometry = C45H69Br2N2NiP | MND = 4
C         1.67023637353102    4.96063510090048   11.29659229018164
H         1.66606418805953    5.73330197114108   12.06910403200948
H         1.92947755037389    5.43655541262982   10.34801542072554
Br        5.53175668502706   -1.16309644231160    9.54496152061921
Br        3.44670991863011    2.17080847689183    7.33996758305832
Ni        4.14045103911236    0.37519465966698    8.55733519173897
P         4.03363181835099    1.50347938641359   10.49142518453542
C         7.93916417840363    2.55478477649320   11.71685667458921
H         7.66516102016155    3.20249951531419   12.55453282289148
H         8.79020740352479    1.94639404021102   12.02950826568509
C         3.79751239487532    0.38319459317892   11.96846219345990
H         4.75545469707226   -0.15046578490456   12.02786253362538
N         3.35784014763163   -1.89198600475720    7.00573530924493
N         4.83809076651386   -0.80885174958953    5.87656499144223
C         2.72770749788623    3.90725303375086   11.63580559050712
H         2.50544750850285    3.48278024759175   12.61483659123425
H         3.69827512838914    4.40236108728573   11.69076867046216
C         1.14733393606776   -1.39391324463749    7.87047986649823
C         1.42791531822737   -3.41564483472157    9.77307126106609
H         1.50572744150246   -4.21695037143230   10.48992181763077
C         4.10191065744509   -0.76165691793522    7.00586902799426
C         6.76493547696280    1.64146671549196   11.37181724398564
H         6.51815740823654    1.03667880786021   12.24636039581297
H         7.06805192574650    0.96644508723952   10.57145646322333
C         2.71366315515714    2.83553844272171   10.54788135929239
H         2.85586306633163    3.36601970906173    9.59750746150693
C         2.31644663101526   -2.16996269476128    7.94041537183025
C         5.56264732455656    2.47819519016209   10.93697291993601
H         5.28451023781000    3.12692834517037   11.77677763071911
C         0.16382081537422   -1.61635441862758    8.82400828734269
H        -0.73624383089440   -1.02379016006471    8.81144893971533
C         2.45327367416736   -3.21826847639539    8.85573406041843
C         1.33235985067574    2.18473663668573   10.48600690381303
H         1.33569560133023    1.37874048094587    9.74346234703866
H         1.07994731423408    1.74750879246227   11.45451502227557
C         3.55723583940719    1.04937350008453   13.31834648094206
H         4.29117145430804    1.83686764642570   13.50223258991666
H         2.56032365213794    1.49255344014182   13.34756969150810
C         5.61408628393049    0.24348708564771    5.30037647929090
C         4.57781801533620   -1.97144879889927    5.19625897204051
H         5.08093484755884   -2.21231921010211    4.28335687029424
C         2.72648158418092   -0.68137131958982   11.72399976421909
H         1.72797875007336   -0.24235059578913   11.73734571346321
H         2.86457569676288   -1.14490993801797   10.74247583399326
C         3.64753688799813   -2.64924382290892    5.90180895560507
H         3.17366015147400   -3.59001278831042    5.71504673388551
C         0.27972767220188    3.22930390546572   10.13138380999842
H         0.50482952979588    3.65135039575604    9.14953265771494
H        -0.70800174233268    2.76454871944619   10.08172686380825
C         0.31295559823892   -2.60241372378915    9.78124157839594
H        -0.46203736184588   -2.75694304807678   10.51761105415061
C         0.90837819995437   -0.45318156203837    6.70867180202173
H         1.84868180788711    0.02786533022413    6.42968661376872
C         2.81321407350823   -1.74701244499880   12.81181540160049
H         2.04975106229340   -2.50874554926875   12.64196902491125
H         3.78995220324419   -2.23357190524885   12.76516705331741
C         3.62200007997582   -4.17464342896438    8.81438050789730
H         4.42818317784002   -3.73436694448096    8.22165140698912
C         0.28258293568949    4.33671157798289   11.18084726207531
H        -0.44659769274671    5.10472884082710   10.91543152428245
H        -0.00991121200698    3.91999444400177   12.14855901022423
C         6.94579325889564    0.41821911662984    5.67548286456053
C         7.63384538792814   -0.51655343828991    6.63939028033954
H         6.89829968315629   -1.19693109523486    7.07432675556969
C         5.01282963041240    1.04193805634933    4.31844441650094
C         5.76767332816533    2.06439965063555    3.76211126528597
H         5.32873094443867    2.69857475451260    3.00931084319797
C         3.65018648844851   -0.00791199450044   14.41873381231163
H         3.48203273803233    0.45802907279676   15.39262889070643
H         4.65374834686468   -0.43999941465884   14.42349908308641
C         4.19203840904729   -4.48185521239874   10.19866805969947
H         4.46358108326304   -3.56343548115668   10.70782344131118
H         5.09012038338822   -5.08437234789784   10.09124510678216
H         3.48420989261864   -5.03379191635952   10.81106775895676
C         3.16760462736963   -5.47680394345225    8.14436814106733
H         2.40333597945495   -5.96346250405611    8.74656734543951
H         4.01088185612194   -6.15551818742206    8.04189196824070
H         2.74896467768609   -5.29516929285879    7.15656038005254
C         7.66006340176370    1.45827935799518    5.09333255378739
H         8.68964627766137    1.61679692739121    5.37368212225354
C         2.62403569338408   -1.11437990427765   14.18782229021685
H         1.61738496262162   -0.69337319875245   14.25693980350779
H         2.71995672829009   -1.87597470813442   14.96446087239945
C         7.07330558711594    2.28351293649992    4.15634566904968
H         7.64019836088526    3.09141207449917    3.71792184914534
C         3.61518861807060    0.77977179155177    3.80469307463625
H         3.09278756280352    0.11381050162811    4.49599737571229
C         8.28473528948098    0.25541602696860    7.78605080789959
H         9.13726038963490    0.83712997686383    7.44420640496054
H         8.61802378380033   -0.43663796015047    8.55539576691887
H         7.55760985670157    0.93456300490522    8.22577133754627
C         8.66754621403477   -1.36379327414686    5.89401957906302
H         8.19381951772516   -1.93595074776503    5.09829234453259
H         9.14033024120430   -2.05806414802632    6.58436993509502
H         9.43725157402719   -0.73563399697660    5.45148567335194
C        -0.08970514998790    0.66547057511669    6.99471856403883
H        -1.10387236587960    0.28342798737583    7.08776168876478
H        -0.06829758508974    1.37750164626728    6.17340041051868
H         0.17474668553969    1.20065350728793    7.90133810571857
C         0.42013968953539   -1.28189899811354    5.51361198634278
H         1.15155683072584   -2.03285271779170    5.22153454219990
H         0.24033084720065   -0.62970225502430    4.66205870486526
H        -0.50979532126804   -1.78955997786119    5.76380865216229
C         5.94308172699405    3.34544405839717    9.73398409482081
H         6.20222261112180    2.69524942706511    8.89049247101213
H         5.09647661008738    3.96207199327427    9.42236160666174
C         8.32508781897404    3.41399204212677   10.51762531923230
H         8.65295241824669    2.76700388187899    9.70128899631351
H         9.15749989332702    4.07053683143274   10.78005917610079
C         7.13067888413430    4.24412436126561   10.05953935852576
H         7.39624637466738    4.83124597381855    9.17805751750025
H         6.84818946195509    4.94186144610462   10.85292029178667
C         2.78079255214729    2.05537226158893    3.68395130262446
H         2.80331230653908    2.61021807841021    4.61708879474420
H         1.74927205341725    1.79392597646453    3.45823528069900
H         3.14653693138638    2.69385359913384    2.88499962125104
C         3.70157468772505    0.08264340121400    2.44206497299924
H         4.20731175315934    0.72258114449709    1.72275309757167
H         2.70240227766694   -0.13306772481773    2.06995107186043
H         4.25192141830090   -0.85334621645563    2.50875159605124

