67
CSD_code = SACLUG | q = 0 | S = 0 | Stoichiometry = C29H30ClN3O2RuS | MND = 9
Ru       -2.93535413378456    4.23912558084789   10.07255908299796
Cl       -3.03866537298716    5.96563583946769    8.57001281721835
S        -0.70510063483392    6.04627596246286   11.33463181703697
O        -1.99856855063078    6.62963258227360   11.56944541095967
O         0.00527625125648    5.57490443071541   12.49845975176850
N        -2.06973041983829    3.03232888855424    8.82123819123583
N        -2.60755563753223    2.10124556775643    8.16279470556444
N        -1.01499855906128    4.78835544221851   10.32600893480589
C        -0.69027819671061    3.12856352694701    8.75070222475209
C         0.11770964570108    2.33846538485412    7.92931415359597
H        -0.35048377933297    1.59786225832304    7.29997990610374
C         1.48040394278630    2.52575269146224    7.94401969872573
H         2.11487646919759    1.92455709171211    7.31177951335557
C         2.05006537998938    3.49068360506692    8.77850976313900
H         3.12268304954931    3.61650723170100    8.78552500934777
C         1.27632290159991    4.28335032292000    9.59423210158621
H         1.71911137090931    5.01310145291404   10.25261194507703
C        -0.11713722346581    4.12010107777377    9.58942295834431
C        -3.30877648687432    3.22689434155843   12.16166783009560
C        -4.09136862602794    2.59437717158281   11.16215411186048
H        -3.99029384611293    1.52280515335225   11.00927430176275
C        -5.14824633530601    3.27084930737592   10.51445439311118
H        -5.82337615582175    2.72233913962566    9.86854821396685
C        -5.34805836491133    4.63877040420857   10.74098305819832
C        -4.58467461443203    5.26746135187129   11.75716950479831
H        -4.78255415374341    6.30173295818275   12.00519422022082
C        -3.62374907945817    4.56748515808907   12.47628649101810
H        -3.11425940037351    5.07017719333663   13.28444238232754
C        -2.33121159872619    2.38852951265499   12.96298915967099
H        -2.88193362241362    1.49805847007006   13.30109665108420
C        -1.16862869197827    1.92758395222869   12.07621007635120
H        -1.52125305583564    1.45714056863328   11.15860282091227
H        -0.55085880757207    1.20992984781525   12.61162842562218
H        -0.54843639518569    2.78477031573300   11.82019768389746
C        -1.77032607623674    3.10990232703765   14.18647732322001
H        -1.17658827929479    3.97026003664400   13.88204240582804
H        -1.12261147487156    2.43148827826037   14.73728290593494
H        -2.56648901229645    3.43368991794097   14.85399549081726
C        -6.40218682070403    5.40577273605814   10.00368638530769
H        -7.07494337451559    4.73412883480199    9.47544345956956
H        -5.92276209852218    6.05881485760895    9.27171463495850
H        -6.97295928434364    6.03122915770009   10.68779012930139
C         0.33260649882849    7.20193866049419   10.45279994888277
C         1.49273122979784    7.64923090004734   11.05577325104669
H         1.74654547624643    7.27486628399869   12.03555930303965
C         2.29362632034830    8.55921378283107   10.39004052215414
H         3.20139616174769    8.91572613046209   10.85490934890543
C         1.93897597071131    9.02259379742885    9.12643360792832
C         0.76573139314637    8.55636121526373    8.54235792727104
H         0.47901996981911    8.90984494466047    7.56308222086364
C        -0.04332398946045    7.64665382062818    9.20105394483180
H        -0.95766335314526    7.28867042853047    8.75328289198905
C         2.82020204828796    9.99170962793488    8.40034136628475
H         3.32851072172678   10.65247450585545    9.09841142432612
H         2.24409596230344   10.59005547982673    7.69933889969734
H         3.57976921038782    9.44942111199376    7.83661149721904
C        -3.95303391225931    2.05240616487973    7.89503893893393
C        -4.60990436897777    0.81971831245352    7.97310303650154
H        -4.06395230784705   -0.04206420574614    8.32614277294473
C        -5.94113957379127    0.72109359576965    7.62284662675075
H        -6.44604315645681   -0.23096454970830    7.70131751966183
C        -6.63033501508622    1.83476463489749    7.16463711354443
H        -7.66991109395915    1.74985107495876    6.88457868810428
C        -5.97361238456183    3.05028880287537    7.04894232591428
H        -6.49820392712424    3.91381773092933    6.66700518999560
C        -4.64667132555483    3.17191020068931    7.41435522062462
H        -4.12364740239526    4.11087761776110    7.28745636708956

