73
CSD_code = SACMIV | q = 0 | S = 0 | Stoichiometry = C31H34ClN3O2RuS | MND = 9
Ru        6.10328710235127    6.74384064822698    6.30624160290013
Cl        4.53184283626822    7.24091100184402    4.69049185619516
S         6.79113431336148    4.58023225091178    4.10707783095264
O         7.93250118719371    3.71037033094184    4.28106803576803
O         7.07533374053580    5.87878909776767    3.56005285152882
N         4.87606104923732    5.87840664675783    7.55371530631258
N         6.07628566407179    4.87713933372244    5.54653729678225
N         4.26513910354945    6.36354662277956    8.54625747926712
C         5.46363222462678    3.95693515279283    6.30206019194872
C         5.42605918287433    2.57228185786477    6.08146161339921
H         5.95201704641832    2.16177319732049    5.23453484852364
C         4.74570757972077    1.76909901248844    6.96714191357247
H         4.72243204228745    0.70205471801460    6.80218244452599
C         4.08563660579281    2.30463811943987    8.07582177422896
H         3.55699563370320    1.64945037798050    8.75055655358231
C         4.10690089362625    3.66059984734497    8.31043143323424
H         3.60474789791477    4.10013235444102    9.15801141486699
C         4.79887707989378    4.49708564785101    7.43134888071825
C         3.97097363049356    7.68242433871355    8.74265227126033
C         3.64807809940746    8.57121090707003    7.70716270976150
H         3.67153126156788    8.23283725054882    6.67962045663725
C         3.22407863026527    9.85105680811872    8.01045253213131
H         2.96020538556302   10.52289472621431    7.20667818641105
C         3.11940767618834   10.27414665080767    9.32679203623347
H         2.78678468579641   11.27635380694258    9.55190176410307
C         3.42510386400600    9.39467425398563   10.35666404211516
H         3.33221676117901    9.71408530224463   11.38461987093916
C         3.83799526415144    8.10962145423743   10.07340343715104
H         4.06980224919974    7.41464745633329   10.86644006857111
C         8.19675526544854    6.43795515914528    7.01924158814772
C         8.60943461240334    7.02781074225351    5.78084512840712
C         7.95578859849544    8.17747348641899    5.33208877900656
C         7.07989636345195    8.88788761236054    6.22866757837834
C         7.08001514559933    8.55519940460123    7.60626999956102
C         7.51014282855409    7.24539054678892    7.97489980062265
C         8.75615895789312    5.09346059766288    7.40036340777559
H         8.84246862646583    4.45983602151074    6.51941923880693
H         8.11224784135667    4.58285972965507    8.11367053734649
H         9.74469808380327    5.20242581958831    7.85142163018679
C         9.72490715597664    6.39232250200118    5.00912634307880
H         9.37325465355521    5.49709709737845    4.49632195567890
H        10.52476048270417    6.10164478060172    5.68919270768905
H        10.12515391788379    7.07144599692295    4.26387202659248
C         8.25076991381785    8.71673468081584    3.96065982618857
H         7.53780252615227    9.47768085111903    3.66403122415877
H         8.19380956123642    7.90182628163073    3.24169972694533
H         9.25116642350115    9.15236630583694    3.93339825562914
C         6.38835133590051   10.14351346910885    5.76310552562034
H         5.83799892705049    9.93801161772054    4.84528420162126
H         5.66693520601433   10.48129871891388    6.50214193641765
H         7.10778222263599   10.94111703314748    5.57160539862711
C         6.78875998552485    9.58961352862277    8.66217688245461
H         5.78445169955325    9.51542828144133    9.07157203728224
H         6.91709809293312   10.58922174038036    8.25558745311148
H         7.49763117704309    9.46791554578415    9.47989542613277
C         7.42201342760891    6.81139495529760    9.41593970070432
H         6.67183105204759    7.38432322273663    9.95334867353661
H         8.38849604147252    6.95121296268232    9.90359065454068
H         7.15504666172438    5.75967860715102    9.49646036621342
C         5.57695341674211    3.73365919751551    3.10655273743743
C         4.26642035586952    4.16827952708267    3.09988266409367
H         3.97864440047222    5.02530679049279    3.68997726475187
C         3.33981787659847    3.49554968088401    2.32241851040852
H         2.31297081877065    3.82959116202409    2.31276308125096
C         5.97466048048686    2.64519692708830    2.35426155731914
H         7.00690744128062    2.33371215627055    2.39584403619351
C         3.71434799074011    2.39732049928463    1.55575684492682
C         5.04199593341378    1.98038002997721    1.57918736293795
H         5.34497063617752    1.12893338531286    0.98718677717990
C         2.71254285915032    1.68651095619345    0.69881678138772
H         2.93503547389184    0.62353327852820    0.64118890497926
H         2.74072969869416    2.09068525708491   -0.31345319173908
H         1.70590713863447    1.81915467916843    1.08683795470800

