35
CSD_code = SACNZN | q = 0 | S = 0 | Stoichiometry = C12H18N2S2Zn | MND = 4
Zn       -1.34525802066153    2.20647358175441    2.74482979703954
S         0.02416258009176    3.48402597367660    1.29754094978097
N        -1.56147764858428    0.73150936648335    1.39929360011552
C        -0.29898859131840    4.12014395208542   -1.27727650027210
C        -0.63005278878067    3.09210878524347   -0.23602792707506
C        -1.35232089536634    1.99116560235374   -0.61042471462819
C        -1.73033836717555    0.83376549181012    0.11466314453829
C        -2.30233363930958   -0.30695168284182   -0.68615683144045
C        -1.77597351965654   -0.50139617182201    2.10826629413700
H        -0.46590984548199    3.74731360810300   -2.28485468343799
H        -0.92208548094963    5.00072583558775   -1.12083431555124
H         0.73671470876115    4.43421840088613   -1.16893087230644
H        -1.63269964437709    1.96995436728394   -1.65639296230098
H        -1.57350789546592   -1.11492958005650   -0.75830929823719
H        -3.19569942411481   -0.69964037981799   -0.20301543446306
H        -2.55574611964507    0.01274307667242   -1.69223590946302
H        -2.83160904595589   -0.58403165919187    2.39850709681931
H        -1.50814625451449   -1.37628579493163    1.50613348216246
S        -2.71478206702844    3.48394951285987    4.19212041035624
N        -1.12908295668474    0.73149822801765    4.09033489994956
C        -0.91458555971632   -0.50140812373785    3.38136032018940
C        -2.06037327420094    3.09215458951993    5.72562811672006
C        -0.96023038051994    0.83374399745245    5.37496942368863
H         0.14105167666313   -0.58406685657218    3.09112473314702
H        -1.18243151910013   -1.37628785981637    3.98349999544863
C        -2.39151844717865    4.12014199620640    6.76689015405080
C        -1.33813502034903    1.99119278676985    6.10003658630414
C        -0.38820272384009   -0.30697060299220    6.17577184721455
H        -2.22451043158632    3.74744699587713    7.77443621307069
H        -1.76860748883602    5.00072916204503    6.61040328607677
H        -3.42717968136881    4.43409107495814    6.65864311332609
H        -1.05779254683226    1.96996420125399    7.14601396174067
H        -1.11701784699894   -1.11495938668368    6.24789591794193
H         0.50517654863836   -0.69963950829545    5.69263521900390
H        -0.13480838855880    0.01270701985988    7.18186088635365

