56
CSD_code = SACQIX | q = 0 | S = 0 | Stoichiometry = C23H27Cl2N3Pd | MND = 4
Pd        1.30785449547054    2.27083911283649    1.67900865180777
Cl        2.21529669616995    2.88016562234915    3.63335396070692
Cl        3.08918178271714    1.01711384556973    1.28974807015182
N        -0.41285860061058    3.26468964990034    1.85528211972621
N         0.41526746237244    1.76988911317711   -0.06910666355148
N        -1.29851786481478    2.06419436980386   -1.42682343975549
C        -1.31241301638543    3.05127425874738    0.93780320791643
C        -2.73045929212098    3.42970079054754    1.07284978569644
C        -3.70478840933645    2.44447656813933    0.90092879539001
H        -3.40419659298024    1.43757745425899    0.64635488262129
C        -5.03968928302963    2.74004378890132    1.09648292445954
H        -5.78364521248726    1.96751246544669    0.97176000025990
C        -5.42128526299751    4.02096329483755    1.46245854573455
H        -6.46461328113031    4.25060714396023    1.61600443672776
C        -4.46012526829760    5.00159232494552    1.63918244405551
H        -4.75190734982259    5.99935852293347    1.92971640534683
C        -3.12063742536751    4.71062593701668    1.45351138632292
H        -2.37998504032434    5.48088703921446    1.59427986247700
C        -0.63057710973715    3.97670512419252    3.04150902704871
C        -1.20123490365617    3.33758270868411    4.15047193303214
C        -1.21164369588937    4.02407863955608    5.35544764116563
H        -1.61523746979059    3.55304711611164    6.23657920974978
C        -0.69442792889446    5.30130384379814    5.45165335105372
H        -0.69382003059725    5.80933368371345    6.40420914037009
C        -0.17939116477400    5.93447778301753    4.33581610067860
H         0.20919302574804    6.93529909216899    4.43003390136116
C        -0.14143054363224    5.29095421119714    3.11002499089134
C        -0.80591249099375    2.30098101800036   -0.17976224273866
C         0.70586531228614    1.16403142515655   -1.24050332087780
H         1.63754550961049    0.65334793094592   -1.38738429222224
C        -0.34999541108478    1.34081051899048   -2.09108157409177
H        -0.49424716467600    1.01997436336080   -3.10216929790925
C        -2.52972974571913    2.52677267887657   -2.00558719602203
H        -2.80131299332782    3.49403318383474   -1.58502281381442
H        -3.34431384964717    1.82380433707050   -1.81685244252300
H        -2.39818619835106    2.62830860814675   -3.08224487665097
C        -1.74202209292865    1.92713668980022    4.02917912456803
H        -2.16501298725634    1.80495331485604    3.02528500309135
C        -0.62021704514269    0.89410041883991    4.20287383674886
H        -1.03995589397834   -0.10983799081836    4.23071960388327
H        -0.08082386501799    1.07852887716093    5.12891113124353
H         0.10597726207377    0.93938784278032    3.36905135955636
C        -2.87021268921933    1.64582491696261    5.02316376666295
H        -3.36014094930904    0.70951785325586    4.76364204892484
H        -3.61304959080852    2.44061525777025    4.99699543523093
H        -2.48717412286209    1.55153546673891    6.03543553141292
C         0.39647134316040    5.96949481047224    1.86342217879516
H        -0.14333378353732    5.56912713915547    0.99351198922882
C         1.88836658761623    5.67162012643468    1.66234082814778
H         2.28302377373288    6.28576327261813    0.85475661468945
H         2.05648839686916    4.61063402647535    1.40062579748071
H         2.43988262765224    5.88621458795468    2.57423106979213
C         0.17104594883935    7.48349354252095    1.88418821165735
H         0.36488379279155    7.89644950777480    0.89610742922302
H         0.84546744613668    7.96746925244480    2.58494487660364
H        -0.85358584278061    7.72421351738415    2.16248154846287

