83
CSD_code = SACQAO | q = 0 | S = 0 | Stoichiometry = C30H46ClMoN3O2 | MND = 5
Mo       -2.13221943696840    4.70498948408402   -4.46618478906680
Cl       -1.26348449851428    4.94188260397359   -6.59189795768195
N        -2.22522521862874    2.51953938364391   -4.97071745865290
N        -3.83713178519572    5.04680701061140   -4.67525808684468
N        -1.51249304037359    6.05950480529865   -3.54207856878119
C        -2.09742094058815    2.74092333110718   -3.54859320529770
C        -0.78034902122136    3.16444883509638   -3.15576531267651
O        -0.01524484065060    3.69164650773563   -3.97696577567969
O        -0.47378494799253    3.00647977669716   -1.86339746888509
C         0.68905152776188    3.68398945862459   -1.36648247756723
C         0.28793541139536    4.64479380516168   -0.26033562652155
C        -3.54278781663233    2.01367160461364   -5.32983836029148
C        -1.20533359758439    1.65771838479620   -5.57295248307547
C        -5.11688374657717    5.42684038435167   -4.75896674651174
C        -5.53158714014247    6.25132373042513   -5.83913934140211
C        -6.84321796831742    6.67830035005466   -5.90090348540902
C        -7.77119045007010    6.29372738752129   -4.94740769287944
C        -7.38297805956349    5.45688238636059   -3.91922754922144
C        -6.07662790138541    5.01469640492362   -3.80154807113749
C        -4.50777838268825    6.63605102690407   -6.88212174045542
C        -3.65250250758781    7.80026944872280   -6.36732357003252
C        -5.11670257035809    6.99217660092358   -8.23746417886553
C        -5.69934318021176    4.07529845066340   -2.67755779603283
C        -6.05944988039964    4.64647484962347   -1.30526399049903
C        -6.38754410923714    2.71743742367001   -2.86108268920685
C        -0.89486912586270    6.98168737980691   -2.79588515572168
C        -1.50951232694060    7.47004040930819   -1.61461282938658
C        -0.84504012221882    8.40676188830838   -0.84438151537967
C         0.40365542418681    8.87745548685246   -1.21086607291542
C         1.00290799794083    8.41254098837207   -2.36838176837180
C         0.38633423741199    7.46576444033027   -3.16494390700123
C        -2.90110795095199    6.99244078318406   -1.27482939443190
C        -3.90118125391724    7.85606793781700   -2.05340799570746
C        -3.20600378270794    7.02266350249010    0.22221136974896
C         1.00657978882475    6.97563328350230   -4.44996679059684
C         0.48999508053293    7.83148486657019   -5.61184518873161
C         2.53414350470135    6.96868750028002   -4.42926880925300
H        -2.62091938338793    2.05468525917080   -2.87570309929414
H         1.16659660562363    4.21639608104654   -2.19565675928279
H         1.36555238270277    2.90985183472727   -0.99066729272397
H         1.17476097170302    5.12985246322251    0.13738544425618
H        -0.21476070669765    4.10655119318718    0.53941940000179
H        -0.38082080949416    5.40884061044504   -0.65118810478772
H        -3.68601454758402    0.98662790286207   -4.96597791828884
H        -3.64525503087356    2.01773033715752   -6.41593228351099
H        -4.31447146725589    2.65680462671493   -4.91046460440731
H        -1.35185045200581    1.63777073132960   -6.65383571277111
H        -1.27715046100686    0.63446569525670   -5.18064507991250
H        -0.20594724461828    2.04767576696435   -5.37618876048524
H        -7.15927873160089    7.31972522210683   -6.70819117366440
H        -8.79263614914805    6.63723040720139   -5.01391248840644
H        -8.11570148358474    5.14212677270392   -3.19093271351369
H        -3.84414789314592    5.77069421170555   -7.02584054385572
H        -2.92301695254752    8.08861634942459   -7.12144603573334
H        -3.11941910689865    7.49845336675758   -5.46172054517465
H        -4.28172262415168    8.65875018722811   -6.13961360820175
H        -4.32550638750724    7.07265404443760   -8.97950901108428
H        -5.63512636846299    7.94733918286765   -8.19645762619199
H        -5.81623655781539    6.22507437817261   -8.56204617549854
H        -4.60747003178853    3.93702066743145   -2.70519011347298
H        -5.68171595392861    3.99573173079079   -0.51873032621860
H        -7.13687067922970    4.73167027489795   -1.18776771444306
H        -5.62127939631132    5.63122375784503   -1.18268676541265
H        -6.02097722085942    2.00249426794219   -2.12662743833367
H        -6.21395638872361    2.31622315399069   -3.85712688634793
H        -7.46193783626973    2.82105465868460   -2.72848760131682
H        -1.30690786589247    8.78929501757489    0.05233236754672
H         0.90479493304504    9.61360205774248   -0.59976326100216
H         1.97090602349449    8.79796903246164   -2.64852679885691
H        -2.99990684740517    5.95454392375492   -1.63631842913567
H        -4.92560492699576    7.59432851409762   -1.80013666915812
H        -3.76406876876786    7.70113639776908   -3.12158668506807
H        -3.74514244396443    8.90829887791506   -1.82353718709172
H        -2.41252836212747    6.54091528663830    0.78989506837541
H        -4.13717607527217    6.49775338678612    0.42268016467975
H        -3.31833376887052    8.04472271192682    0.57595752477684
H         0.66754579917408    5.94429135278172   -4.61315419979089
H        -0.59753768994996    7.78382945195726   -5.65600931698553
H         0.89054322015673    7.46865136794882   -6.55593975541302
H         0.78913811259542    8.86982484077279   -5.47731572982684
H         2.90759054592694    6.47592490926669   -3.53352900915512
H         2.93410504854275    7.97971962355761   -4.46491973774123
H         2.90745560200115    6.43135620830220   -5.29853432768971

