57
CSD_code = SACQIZ | q = 0 | S = 0 | Stoichiometry = C14H22CdN12O8 | MND = 6
Cd        0.00182213507593   -0.00219017178094   -0.00146742210779
O         0.41425945810741    1.90829612828071    0.81167036316800
O         0.14887039500076    0.81333833546604   -2.08624242678477
H         0.65711993821766    0.18022766269596   -2.60755939774130
H         0.78978718456315    1.52062760777781   -1.79898736572470
O         1.85739284281784    2.35865805981590   -0.81478712692491
N         1.86700049793954    2.89417116752704    4.88323950002676
N         2.17584799919039    2.84243761067295    2.66689281980395
N         2.42852891389863   -0.72933411960476    4.49065683656405
N         2.83202041506274   -1.84247913475498    2.54262454337696
H         2.63071813032485   -1.90329539545851    1.55690458143544
H         2.64479849760347   -2.66038044807123    3.09734039854770
N         2.54011888492624    0.43734223393035    2.40283229530893
O        -2.25687026192188    0.29980585871438    0.16471379056804
H        -2.55747537860542   -0.46057262081486    0.68579364136310
H        -2.44940994016395    0.02599901269038   -0.77758010095121
C         2.27397325731875    3.32475458395691    1.32087406377847
H         3.31272265708538    3.30617885072346    0.97234675339088
H         1.90907018458785    4.35425570348554    1.28390015423541
C         1.91018916882462    3.58389263958961    3.78713712571409
H         1.76042601487778    4.64489214815969    3.73764324021045
N         2.01257920457751    0.29147520490345    6.51243575164757
H         2.18474220407452   -0.58691088238074    6.96667642487470
H         1.93728356703736    1.13971490482384    7.04339770873118
C         1.43224435736385    2.46089630475128    0.35187318189060
C         2.10551846984283    1.60105649821274    4.48924091675790
C         2.56941448585587   -0.66521428131319    3.16387823639655
C         2.19408679608732    0.38083427490534    5.18144919434769
C         2.29555508414489    1.55407519900784    3.09833841891563
O        -0.41087077101300   -1.91157276693960   -0.81744150355488
O        -0.14164478407607   -0.82051325781502    2.08332368756298
H        -0.65047394119556   -0.18929137119107    2.60634604256423
H        -0.78181493426677   -1.52819032405144    1.79508072333364
O        -1.85061339531356   -2.36483439540685    0.81117385348805
N        -1.87707915171411   -2.88896992328566   -4.88799305745000
N        -2.17794886839258   -2.84169894904780   -2.67040903110551
N        -2.43112481111638    0.73456491760294   -4.48545293597628
N        -2.82529866818875    1.84417471250200   -2.53348485359586
H        -2.62039276235004    1.90248511657109   -1.54832622313789
H        -2.63813258228477    2.66318053631671   -3.08663654642178
N        -2.53756926457889   -0.43653853613995   -2.39982111406133
O         2.26060532751920   -0.30522775873348   -0.15983401904591
H         2.56308051273415    0.45347972574131   -0.68221219686226
H         2.45112357075780   -0.02893588769831    0.78232672734303
C        -2.27146298302214   -3.32736822229473   -1.32523029196867
H        -3.30917231653655   -3.31113138062304   -0.97352284440757
H        -1.90504472340602   -4.35646386987397   -1.29196343924646
C        -1.91733708326859   -3.58104329055493   -3.79328479352282
H        -1.76895165791337   -4.64237395917988   -3.74666827346129
N        -2.02543931089758   -0.28278862411201   -6.51106951451475
H        -2.19736085504903    0.59692757165906   -6.96280209451913
H        -1.95320909938105   -1.13002002418193   -7.04405667071105
C        -1.42785112100304   -2.46504062083140   -0.35656158724507
C        -2.11231376108418   -1.59638851452204   -4.49026785373276
C        -2.56725188250154    0.66776558748578   -3.15833576472403
C        -2.20147959600000   -0.37455827743862   -5.17953658702950
C        -2.29730625017668   -1.55218114988139   -3.09857593882635

