87
CSD_code = SACRAQ | q = 0 | S = 0 | Stoichiometry = C44H37Cl3OsP2 | MND = 6
Os        5.99707818850827    8.13635392156970   10.99230298849717
P         6.45901307425120    6.10587239921181    9.81594719985940
P         4.84349037712892    9.85700460361242   12.15080872390008
Cl        3.86162554968195    7.22261443970833   11.22506860034290
Cl        5.54846777026397    9.07532772911575    8.81788618761824
Cl        6.51830956330449    7.04115779126982   13.07457063392035
C         7.64058356558624    8.86922732668606   11.00810702858429
C         8.93940136573351    9.45487934364840   11.20217453895965
H         9.03348555230186   10.37675547376111   10.61706816471069
H         9.71426684622860    8.74952200920686   10.87836472314134
C         9.06609469489939    9.74275340591512   12.68723233530131
C         8.94052983840390   11.03804592056031   13.16754823461003
H         8.78116952090950   11.85722309985396   12.48187432041604
C         9.02078049824753   11.28377927510184   14.52770883826608
H         8.92211192879629   12.29534419483629   14.89325481360207
C         9.21758694163261   10.23728008336364   15.41285452575083
H         9.27202660454551   10.43091520152709   16.47412110325233
C         9.34233951800300    8.94334366782590   14.93432588338941
H         9.48879712417932    8.12246196578923   15.61948504123241
C         9.26712150797009    8.69443615029393   13.57571303322596
H         9.34966435408386    7.68530556755453   13.20363142030343
C         6.06699123461259    4.58545653862815   10.72310444515819
C         4.93734397488947    3.83735598421797   10.40863453948232
H         4.29978855753433    4.13652935184628    9.58846138614288
C         4.62462542652871    2.71503459280397   11.15460818161124
H         3.74431596495518    2.13863196163779   10.90941096094303
C         5.42943041276458    2.33760476901207   12.21625153038321
H         5.17870919246864    1.46339191746447   12.79932334856344
C         6.54953212396250    3.08769111734691   12.53818791483845
H         7.17050171306751    2.80298124850704   13.37472905791608
C         6.86830676728565    4.21199786396667   11.80097137716123
H         7.72229409363205    4.81706506083310   12.06924252201176
C         8.21479997874008    5.94478750302069    9.34008045336425
C         8.78970725819734    7.06153642776743    8.73618721552306
H         8.18903624960650    7.95371104075990    8.60290143761322
C        10.10196397039539    7.02426295618090    8.30430847489559
H        10.53970758298517    7.89145493712282    7.83172671548341
C        10.85432098939534    5.87214440419133    8.47524856796311
H        11.88173764824580    5.84246019053529    8.14386205634268
C        10.28383296597755    4.75639985558859    9.06397553619670
H        10.86456814968153    3.85393479314139    9.18731016376602
C         8.96618351004746    4.78508528140611    9.48973782016719
H         8.52368024437215    3.90300272807653    9.92966712531519
C         5.63881847111499    5.84542624080600    8.20502260378327
C         6.31606564104555    5.19921447179505    7.17444013377853
H         7.33894294663083    4.87915079630342    7.31083605800693
C         5.68276250033871    4.96687360711968    5.96718209533694
H         6.21763767272487    4.46662115969000    5.17276782001046
C         4.37361375657878    5.37492432097467    5.77405703226213
H         3.88524699566766    5.19625738221523    4.82730804017244
C         3.69430399221706    6.01272367257888    6.79794537535840
H         2.67285710637209    6.33324496108170    6.65491177407966
C         4.32018648218687    6.24599306715187    8.00854411022594
H         3.78039955887122    6.74263352009048    8.80132164824652
C         4.54775869830072    9.39881748667510   13.87588147351026
C         3.32949758324958    8.87063232136199   14.28767085082657
H         2.51331638212527    8.78150827617249   13.58359116431997
C         3.17367549632264    8.44517417330150   15.59496310988410
H         2.22799263181660    8.03129903422090   15.91372059468604
C         4.22886720143536    8.53512749794335   16.48719636411078
H         4.10314164080142    8.19654609484822   17.50535846391211
C         5.45148755635566    9.03898967290756   16.07097620906743
H         6.28322216267763    9.08753283312659   16.75812607989749
C         5.61767246767950    9.46053423146878   14.76654596691886
H         6.57753972950391    9.81978219757043   14.42157824643682
C         3.22298502886135   10.46125260802079   11.56843374152803
C         2.71323366587819   10.17150169206189   10.31074372486261
H         3.26511859980790    9.54072177427234    9.63117544852300
C         1.49210676540202   10.69725571118318    9.92344691481103
H         1.09851452926823   10.46338589628246    8.94535124286499
C         0.78027434392207   11.51659121868319   10.78111261024465
H        -0.17455505232980   11.92105340944313   10.47837806772222
C         1.29618965365235   11.82263960415908   12.03124150076013
H         0.74717833917715   12.46821285836359   12.70151730441393
C         2.51385194658863   11.30325102082546   12.42417324079510
H         2.91615333804198   11.54485974685544   13.39883524260637
C         5.68420482632705   11.47889322554552   12.22840428756199
C         6.23705208303235   11.93228875610524   11.03318931568129
H         6.20604519710100   11.28932786296456   10.16171179609418
C         6.81415759644681   13.18662203755151   10.96452162690076
H         7.23987412876025   13.53457355093578   10.03448071619218
C         6.84485218100282   13.99734197777066   12.08885874025978
H         7.29846728491707   14.97645428031190   12.03850946660347
C         6.29145521492342   13.55094635556688   13.27702943900470
H         6.31050705080332   14.18335448902378   14.15285367348947
C         5.70594056155673   12.29880157631857   13.34948817539837
H         5.27576364924382   11.96153923352181   14.28171933885254

