96
CSD_code = SACTEY | q = 1 | S = 0 | Stoichiometry = C43H45ClN3P2PtS(1+) | MND = 4
Pt        5.78198678758302   12.89378971107087   22.92922006033680
Cl        3.90982767993956   11.61772734801727   22.47389531400912
S         4.66045169244297   14.82926350862858   22.00231454423184
P         6.49698333848704   10.91972913245620   23.85975095334671
P         7.51512837094026   14.31525879045899   23.36738212585878
N         6.34724026296111    8.85129653442580   20.34564538279415
N         9.51191460943740    4.44846427389771   19.10254008266529
N        10.54177374259120    4.17124395900074   19.79211128424058
C         6.37161245492417    9.47703363579825   22.73252892641365
H         7.00553646015583    8.66748632356787   23.10359097442581
H         5.32902489781954    9.14748053020824   22.75473002039269
C         6.74926078368398    9.85725337848628   21.28800341575525
H         6.22918567753095   10.79203829032672   21.03542758926181
H         7.82419833246355   10.03488558179072   21.20733716283577
C         5.02044984295585    9.01101108388407   19.78359778139372
H         4.40249139165347    9.53729977953332   20.51573354933598
H         4.56990871440419    8.03007566904439   19.62280797978195
C         5.03910762006585    9.80763703071220   18.47921932546435
H         4.03153047475254    9.89020854821747   18.08184556873241
H         5.66938523824096    9.32164797480085   17.73924423670002
H         5.42334623559043   10.81054376931560   18.65149372532515
C         7.14610366463140    7.77606658709806   20.05378240367770
C         8.33389650684665    7.52774614534511   20.76836342447567
H         8.64350255023189    8.18126963643303   21.56987228616364
C         9.12894065722857    6.44810422213283   20.47982248724395
H        10.03493777938197    6.26616679442389   21.03796515821422
C         8.78218632737387    5.54981772873000   19.45941977983758
C         7.60910854984210    5.79701283108696   18.73563404419433
H         7.33994642724742    5.11733770942299   17.94226457242973
C         6.81518540261925    6.87932425221893   19.02235592332129
H         5.93095058337807    7.03522351549601   18.42741703464528
C        11.29323220021145    3.08487616875484   19.39952595684147
C        12.30905430111747    2.68252496424239   20.27342231883710
H        12.43229180667577    3.21396374063045   21.20478758344233
C        13.12187691172212    1.61740522949344   19.94442584129894
H        13.90210871576697    1.30492435451930   20.62267324221247
C        12.94167233750833    0.94899320433135   18.74237525204092
H        13.58295045871971    0.11911660667488   18.48571645632481
C        11.94052522951945    1.34686190367679   17.86663587884854
H        11.80660187768688    0.82462833159608   16.93053333816277
C        11.11774368175492    2.40491208138016   18.18651931029784
H        10.33594106372882    2.73429907979980   17.51888066000944
C         5.48784955376692   10.52494571128292   25.30276311991005
C         5.43897170698019    9.24495897712009   25.84661799223241
H         6.01836035032179    8.44528068394591   25.40782935505498
C         4.64024215604457    9.00206289862742   26.95011216175333
H         4.59666523128440    8.00931358939704   27.37131863260381
C         3.89277431505106   10.02583950082639   27.51085538223333
H         3.26799474564780    9.82757938684760   28.36794462270590
C         3.93701806710495   11.30077383328142   26.96832597396384
H         3.34511400729598   12.09285388323325   27.40160649263411
C         4.73300072340921   11.54801128755188   25.86636319579602
H         4.76424652080552   12.53306949657610   25.40643488124341
C         8.22932507381883   10.88389990713197   24.40786916627345
C         8.60465109169777   10.50126746216775   25.68961495827205
H         7.85170000100682   10.23530354660193   26.41687407080618
C         9.94527021587709   10.45982933744244   26.03052377363153
H        10.23386311399707   10.15972128491122   27.02615724068436
C        10.91432671080229   10.79363551505242   25.09915585825754
H        11.95841108709417   10.74667208459751   25.36685377046301
C        10.54296171760771   11.19445013976251   23.82524962607223
H        11.29608260085644   11.46321655606946   23.09994652882209
C         9.20550010388688   11.25239557588952   23.48477375424291
H         8.90627633426926   11.58784658098660   22.50006707625095
C         5.77766256956598   16.22787776503936   22.39881512443478
H         6.36423565572387   16.37836253258858   21.49044123300943
H         5.14446856235692   17.10113703073924   22.55758042727589
C         6.69134875237504   15.96415963271349   23.58423981176133
H         6.13171022719951   15.94656166709833   24.52449779692014
H         7.44737020670358   16.75130098753205   23.66258818939093
C         3.42939601268545   14.99593809878555   23.32627992496321
H         2.77316859968965   14.13207638123492   23.25263345530189
H         2.86046228735544   15.90562366637824   23.15380811825320
H         3.90508947096688   15.02194015134160   24.30308677748040
C         8.57041431179466   14.60235954157399   21.92722381895464
C         9.52434801957770   15.61513277939327   21.87374205360674
H         9.68327659678671   16.26032528717702   22.72666993478445
C        10.26547308410897   15.79494319878085   20.71961502456944
H        11.00751678054606   16.57751540955987   20.67646693519711
C        10.05485549669089   14.97828129173174   19.61880637839204
H        10.63735806483386   15.12535015187989   18.72267940794815
C         9.09286159181626   13.98121965948511   19.66220858260983
H         8.92167089792887   13.35501160062582   18.80013686827180
C         8.35112996853153   13.79563020579446   20.81382142395558
H         7.58107676254187   13.02870072690639   20.86325725718261
C         8.53271563734656   14.17657597111733   24.85561691884899
C         9.92214192570398   14.20198868218958   24.85308079092377
H        10.46223698338073   14.32908268978283   23.92695760688706
C        10.61124340090568   14.05380178480861   26.04348701401251
H        11.69000928799677   14.08274656438486   26.04222208025782
C         9.92509647997579   13.86460075916574   27.23176695720590
H        10.46961429321370   13.75014073205303   28.15601036678353
C         8.53953344499597   13.81102212235961   27.23373825960497
H         8.00426994730346   13.64914153745505   28.15681399798963
C         7.84609689388710   13.96038204641938   26.04983452643517
H         6.76494071524151   13.89919216306703   26.03820234686808

