72
CSD_code = SADFUY | q = 0 | S = 0 | Stoichiometry = C29H33N2O4PSi2W | MND = 6
W         2.19431056083052    2.69789521859249    5.99555845912296
P         1.24393524011513    4.31682253997069    7.60023311970789
C         3.39291632413144    4.40730086866182    9.30827182929995
C         4.28083174333438    4.96287925387946   10.20966197400110
C         4.18184294446827    6.30557295235372   10.53733234815688
C         3.19603186348034    7.08706865026107    9.95836121366221
C         2.30509844050110    6.53297345648633    9.05536665537660
C         2.39813537117155    5.18562230360513    8.72358389520163
C        -0.33559082935158    2.45071773999973    8.94079065888949
C        -1.25048480795200    2.03729363574359    9.89418546960719
C        -1.81078943477976    2.95860596086405   10.76211316272356
C        -1.45348187423231    4.29594928095971   10.67916094744965
C        -0.53928506138941    4.71195146188310    9.73069304172893
C         0.02129971163110    3.78959312446645    8.84996536766336
C        -0.99175549949468    5.75848161708214    6.66476815867863
C        -1.57923229481102    6.74913710180995    5.89663211258137
C        -0.79313142554942    7.66258003542116    5.21527410214159
C         0.58915040785442    7.57993277126090    5.28942548505551
C         1.17953568949386    6.58933582456534    6.04861881680565
C         0.39248527697718    5.68481933596449    6.75981134236511
C         0.47354349194728    1.76584415447249    5.73334075856344
O        -0.51480204806647    1.21839346507331    5.51823149699243
C         2.64475087459296    1.42085912189181    7.45604952212352
O         2.86083094780675    0.62255051669460    8.25325495867770
C         1.65950567828777    3.88815246158597    4.48366815705230
O         1.25951121463428    4.47930682946220    3.58886275979536
C         2.94725209279262    1.44031506906855    4.66534042794062
O         3.30967180590929    0.68419615649227    3.88202376927533
N         3.99417294860475    3.61866178160665    6.24276284658527
N         5.04731070800412    3.92327441278329    6.56852522159669
C         6.23259118428232    4.15644621998632    6.91431219991920
Si        6.81493857773598    5.95961406035242    6.98844726550658
C         5.28281743152675    7.05729762973606    6.71379881802781
C         8.09520250028513    6.28711006971052    5.61279280870294
C         7.59419927555038    6.29266390486782    8.69440696197605
Si        7.21808814862455    2.57923708255494    7.34730473188163
C         6.44814616910646    1.14972741459500    6.35485381236136
C         7.04411458908221    2.25137342057661    9.22008005488137
C         9.04527483307694    2.84674060853092    6.89170509696483
H         3.46100042189558    3.35741515907594    9.05119035849427
H         5.04767455577310    4.34944546165838   10.65840044891457
H         4.87034974855570    6.74452518705589   11.24439675299958
H         3.11905065798992    8.13465003209454   10.21106907549941
H         1.54482762227913    7.15408221034004    8.60201581274140
H         0.10425592459236    1.73551078368814    8.25792659453925
H        -1.52592011565428    0.99508102603477    9.95771409668202
H        -2.52586147615300    2.63710727046724   11.50485187831211
H        -1.88972822728515    5.01499933827377   11.35729965816076
H        -0.26001468893718    5.75463476029567    9.66690620663291
H        -1.60667862786127    5.03760698936785    7.18599340734191
H        -2.65570659301831    6.80313853161956    5.82474783416242
H        -1.25580991740726    8.43246711498464    4.61579945329231
H         1.20379626500631    8.28261553240512    4.74585251110990
H         2.25879872662618    6.50217090460255    6.09550651508895
H         5.53722417833595    8.11238943687378    6.72851714637339
H         4.53690738920763    6.88876579097873    7.48452755254948
H         4.82332194725105    6.84582283031953    5.75253618696894
H         8.38574954567259    7.33332062457231    5.58862097869416
H         7.69905997344996    6.03451814471876    4.63402506565375
H         8.99547626983749    5.70128789103016    5.76324864834999
H         7.97703130131095    7.30635888924740    8.75964303461101
H         8.42182763816627    5.61710356159618    8.88357294826666
H         6.86987149642656    6.16151795758173    9.49123448821846
H         6.91331889829799    0.19732524341185    6.58920236525183
H         6.54807590182169    1.30914953471558    5.28526394237856
H         5.38528838308574    1.05481633389153    6.56724744312706
H         7.64071251054147    1.39759907717325    9.52713083454792
H         6.01264656272269    2.03998774691944    9.48602324663189
H         7.36998269705406    3.10660469085221    9.80404743322240
H         9.63444568041094    1.97031933618832    7.14158166821885
H         9.46639065621649    3.68912345205042    7.42946681829459
H         9.16849192353601    3.03374164216613    5.83046976558127

