29
CSD_code = SADGUZ | q = -1 | S = 0 | Stoichiometry = C13H8Cl3NO2STc(1-) | MND = 6
Tc        3.29214069433308   -1.10139029336785    7.51664243436966
Cl        5.51244872752027   -1.19817604573895    8.44039878072940
Cl        1.11899096733433   -0.58854536026845    6.72780336892272
Cl        4.02421150367043   -1.59306219291477    5.39036597197091
O         3.68426148066267    0.64351056452816    7.25770952658350
O         2.95612914186514   -2.64181619797733    7.91496485189283
N         2.71687300304907   -0.24148674599221    9.53580614907370
S         2.83830623626183    1.17686410244273   11.68684130456777
C         3.21230786019294    0.87579912587567    9.98639642009695
C         3.93652035882815    1.86637877435520    9.24623733843477
C         4.43784672865585    3.01356499367601    9.86732545484977
C         5.08745491900472    3.98811177471559    9.14621946249615
C         5.24694256528424    3.84024104380893    7.77033348710759
C         4.76724817849517    2.72528607236418    7.12632863536432
C         4.11445580288892    1.70703413262002    7.84240359239982
C         1.93662161446378   -0.30491988643293   11.72766771340643
C         1.23752972929598   -0.85588470555480   12.78754826271040
C         0.56300652859897   -2.04168021656811   12.57417698606030
C         0.58469032337699   -2.65744484459987   11.32461858338267
C         1.28224126119648   -2.11325216979312   10.26731441963256
C         1.98269680162048   -0.92522067082428   10.46411431519205
H         4.30813669514520    3.12204603929373   10.93579742684830
H         5.47254234734915    4.86446759853257    9.64595044082028
H         5.75580939169892    4.60738398248543    7.20397872710876
H         4.89363142618641    2.58721850414523    6.06290571132419
H         1.22296394145478   -0.36086595962553   13.74636012206798
H         0.00762972108491   -2.49061967959787   13.38470186863296
H         0.03999254972041   -3.57807301388519   11.17943781368825
H         1.30326950075611   -2.58286872570142    9.29635083026215

