77
CSD_code = SADGIN | q = 0 | S = 0 | Stoichiometry = C22H48ClP5Pt | MND = 4
Pt        2.38630524000081    3.34107733785105    2.74373635156978
Cl        1.77252608445456    3.34143855197247    4.99988424224654
P         2.84589626965557    3.34152487238990    0.47574318542736
P         1.50462334837827    3.34156638875776   -1.10106919191604
P         4.45011426020682    3.34147586980243   -1.98718745166811
P         2.12831337062284    5.63083344422401    2.90109420001417
C         2.73839736108517    3.34151445395294   -2.33467919522019
C         4.41930862851415    3.34155460733957   -0.24170948641909
C         2.33168933166018    3.34149593748180   -3.79791428686074
C         5.67955254707557    3.34151415156655    0.59904683468311
C         0.81223080603853    3.34150326406969   -3.96027926130108
C         2.90462386816398    4.59082858868361   -4.47577009688534
C         6.91836409208656    3.34150368114601   -0.29560449851091
C         5.69747624648019    4.58052245665400    1.49585726957555
C         2.77370938304578    6.45906430161170    4.41089326364237
C         4.24244746167586    6.12992572868237    4.64578105506887
C         2.68656745332090    6.70427409152954    1.50854467166968
C         2.12586764281677    8.11964708265674    1.48263650121799
C         0.32209612151651    5.93490533237285    3.02093197574261
C        -0.38191611866251    5.44360926170056    1.76113420504433
H         0.54551022357643    3.34150111316774   -5.01583138240643
H         0.37841933544866    2.45885514173335   -3.49218000999930
H         2.63571960214834    4.61081597951356   -5.53059194102958
H         2.51607250813253    5.48883498385253   -3.99855037526924
H         3.99021718330858    4.59764589492224   -4.38988891002297
H         7.82327097566057    3.34149970320981    0.30983477768646
H         6.92287352317367    2.46020905831461   -0.93422854078551
H         6.59616029076541    4.59767675567376    2.11009996726795
H         5.66871233121851    5.48417803824059    0.89046230932145
H         4.82290608094636    4.55975599657844    2.15640822662230
H         2.17523855146257    6.09362415151317    5.24877898825065
H         2.61960966565548    7.53776296042328    4.32053253616141
H         4.58464412966734    6.56057932870289    5.58464191466832
H         4.37062135029853    5.04811817790228    4.69878800757057
H         4.86750689022353    6.51441665730724    3.84212778818676
H         2.42967739095226    6.17367555589714    0.58480797728268
H         3.77732751570302    6.73941371297245    1.56159605646846
H         2.57815132451106    8.67169199473997    0.66079765674835
H         1.04961197998346    8.12041541933710    1.33186817112483
H         2.34704221370857    8.65398022713838    2.40444557866409
H         0.13307685799259    6.99611657858399    3.20496455846785
H        -0.02620419710497    5.37016619322034    3.89100940013784
H        -1.46062597769181    5.42106658461854    1.90115944370035
H        -0.15830622994636    6.07809011412130    0.90658959311105
H        -0.04218529948195    4.43372205834495    1.51887198079840
P         2.12835493013028    1.05219795340076    2.90112968843219
C         2.90461477123010    2.09215775128460   -4.47576719809062
C         5.69746782558585    2.10249547880553    1.49585014811488
H         0.37842546441447    4.22415658688239   -3.49218405570906
H         6.92288004741388    4.22280015322235   -0.93422475385237
C         2.77372265550621    0.22393212477084    4.41091449759583
C         2.68655397336112   -0.02126133656396    1.50857094878587
C         0.32213651519161    0.74812544424250    3.02094419698284
H         2.63571240584103    2.07216664474293   -5.53058983181182
H         2.51605822484016    1.19415681121119   -3.99854204330921
H         3.99020780731081    2.08533689308976   -4.38988332540500
H         6.59615141573904    2.08532656911045    2.11009478578394
H         5.66870305294856    1.19883817555423    0.89045646723726
H         4.82290122323894    2.12325540854697    2.15640307116433
C         4.24246209140808    0.55305943375990    4.64579273225500
H         2.17525147675207    0.58936324593140    5.24880251915345
H         2.61960550810709   -0.85476237710197    4.32053843980803
C         2.12586279524786   -1.43663519479054    1.48264073330732
H         2.42968045848431    0.50933412347235    0.58483136184341
H         3.77731051524847   -0.05639797158052    1.56160260559642
C        -0.38189443152779    1.23941412218493    1.76115834735407
H         0.13311340642772   -0.31308606444372    3.20497226701421
H        -0.02618431378013    1.31284225221140    3.89102456100871
H         4.58465426383704    0.12239010268546    5.58464828265163
H         4.37064184583022    1.63486461821663    4.69880384618740
H         4.86751286901057    0.16858121609740    3.84212667291948
H         2.57815090127233   -1.98866207320990    0.66079374808129
H         1.04960739481941   -1.43739759783258    1.33186512092584
H         2.34705336373584   -1.97097414509733    2.40444215521640
H        -1.46060450719997    1.26194605598886    1.90118565187691
H        -0.15828853915731    0.60494211474750    0.90660708067809
H        -0.04216702971848    2.24930169598087    1.51890721835503

