75
CSD_code = SADLAN | q = 0 | S = 0 | Stoichiometry = C24H41N3NiO4P2 | MND = 4
C         7.99900228245669    5.28711278308996    9.97748557893725
C         6.87999092335941    5.45451118206796   10.79688246867838
C         5.74012477311312    4.68440810449043   10.65254966308881
H         4.89479569679217    4.83427940908130   11.30373802012151
C         5.70491737043478    3.71442414387326    9.65265809081748
C         4.51776372693719    2.85780459550191    9.44560011614886
C         2.36278172058337    2.32640137727629   10.18206005492808
H         2.60051515416713    1.26763137098862   10.30649021138069
H         1.92426671732411    2.47129539371364    9.19226389936566
H         1.67623069532462    2.65796022495787   10.95699333761952
C         6.79915755300337    3.52709846320169    8.80915407679648
H         6.75476321397462    2.77725390218901    8.03532052323313
C         7.92401890497976    4.31126720466060    8.98013541824301
C        10.18920895393017    6.20444678972952    6.82829405455011
C         8.77368281627784    6.78813137299188    6.77061347369087
H         8.68878970070574    7.50509185365521    5.95567257424024
H         8.54379718140246    7.30495994932529    7.70757897261001
H         8.03240678481504    6.00548750065157    6.61746452811236
C        10.44431112956428    5.31751169182807    5.61702723019916
H        11.49214351984351    5.03513745127048    5.55104620207983
H        10.18469878770128    5.85596696610490    4.70613802360814
H         9.83572730298580    4.41675292444732    5.66772578103413
C        11.19371503972724    7.34876051171662    6.91440775341012
H        11.06130595732463    7.89511415383691    7.84756300281748
H        11.04352260696121    8.04067684902642    6.08697447750054
H        12.21758322441367    6.98963682642274    6.87309909107485
C        11.65913831396695    4.11046827829050    8.69474178625513
C        11.43789187291478    3.62180004615061   10.13088357050592
H        12.26567404322595    2.99580951502115   10.46004520227843
H        10.51829144217299    3.04015268779469   10.20204597689827
H        11.36588761799186    4.48299963567190   10.80482157523941
C        11.67543061746749    2.92225152703664    7.73995879750512
H        12.40234169579805    2.18954784106104    8.08862852943807
H        11.95469975281872    3.21966136929118    6.73359672543812
H        10.69963236613408    2.44357985490785    7.70316269035351
C        12.95641379539477    4.90715415411595    8.62634955080128
H        13.20850541742813    5.16340222355218    7.60014922267844
H        13.77640924949278    4.31875004256046    9.03557146451579
H        12.86414993412706    5.82208898052396    9.20976180112072
C         8.93220766826789    6.66331123966916   13.57254626713679
C         8.99631309598859    5.13527531292919   13.47468386999402
H         9.47729777628864    4.71680126272699   14.35710871050878
H         9.57787026996226    4.84131363473009   12.59449261171568
H         8.00032042231586    4.70409094937407   13.38921389991700
C         7.94684892390895    7.08046341111108   14.65674789666080
H         7.99923873044336    8.14989652626400   14.84625703158795
H         8.18511355490300    6.56410239119333   15.58617199527910
H         6.93014361854006    6.81763064695488   14.37073621259026
C        10.33419737624039    7.19541726320067   13.85090539012397
H        10.70624226010219    6.78611811600120   14.78912379569767
H        10.35142301959442    8.27882056853868   13.92308293297962
H        11.01273284724373    6.89449846791261   13.05379927766017
C         7.81098971074242    8.97075997268024   11.72706644807961
C         7.70625775471939    9.17141782157882   10.21059161133600
H         8.67649725272989    8.99050722861487    9.73874289126432
H         7.39758309572365   10.18828317843227    9.97355481998704
H         6.97472948681898    8.48298009778232    9.78397941285891
C         6.44376504968559    9.19661326833431   12.36637983004107
H         6.09182331314424   10.19577375504246   12.11195903444638
H         6.49065712365510    9.12137137465362   13.44856174604213
H         5.71652944686139    8.47639657600877   12.00000988445797
C         8.83491725735702    9.94143282479549   12.30470552107841
H         8.86771489715329    9.87908683355080   13.38992587997813
H         8.55869301434877   10.96123553202394   12.03872222325469
H         9.83151467576196    9.75443872820951   11.91162391483918
N        11.13813971014522    7.26630658104995   10.47895414180479
N        11.58273890691940    8.32280114569938   10.71653574623403
N        12.11470686742739    9.30267517152654   10.93534952307574
Ni        9.54437059209103    6.33863451239897   10.21599874183346
O         9.02139076473617    4.15044365488234    8.15548557096423
O         6.93668046445993    6.43245181196071   11.76991086093847
O         3.53323104982038    3.11500810220068   10.32378363246147
O         4.42397962142959    2.01348935997201    8.58749298327935
P        10.19345198499067    5.25141083826740    8.44590002034354
P         8.38780053850526    7.18465268744075   11.85264215232221

