67
CSD_code = SADLER | q = 0 | S = 0 | Stoichiometry = C32H25N3NiO4P2 | MND = 4
C         6.73460804131062    9.43588145997713    1.47899712388942
C         5.39385527675722    9.08743851448451    1.29034512935320
C         4.64873717132027    9.60873454828332    0.24989436925846
H         3.61193698111328    9.34223244317849    0.11979460925842
C         5.25166656342239   10.49424697409079   -0.64240980280195
C         4.42510596586898   11.03094166014783   -1.74673955784357
C         4.36950780072420   12.43088598992418   -3.61831499180326
H         3.99763400276552   11.63770912575491   -4.27049262467333
H         5.05856647922834   13.07709447134584   -4.15607290907626
H         3.51774041081720   13.00333166053795   -3.24473564274930
C         6.58984193755617   10.85409962587831   -0.49182724857666
H         7.06067103581533   11.53052048158294   -1.18579501627819
C         7.30810853645212   10.32405893022540    0.56380697055073
C        10.33883398879832    8.59292894915113    1.00661326818269
C        11.46869443042769    8.95286334519709    0.28388071994675
H        11.80863020798545    9.97886280646579    0.29468877896655
C        12.14828291429429    7.98986374577185   -0.43976681518762
H        13.02998666269420    8.26213759645125   -1.00108526776199
C        11.70348480396715    6.67666085275347   -0.44362671574822
H        12.24247449558990    5.92915227885683   -1.00669416268961
C        10.57244358182848    6.31819639023386    0.27203662621926
H        10.22810721853654    5.29476915339445    0.26774766977844
C         9.88948168921319    7.27794048012111    0.99554539811163
H         8.99868851537214    7.01576078790833    1.57349514576231
C        10.55251947148016   10.99153429691427    2.55142762880134
C        10.35410728961876   12.35772237606570    2.38844621744807
H         9.48117995222231   12.71228057997911    1.86031113789090
C        11.28188849460232   13.25187372421898    2.89179214322491
H        11.13280478596212   14.31325440610611    2.75672577070943
C        12.39576030871575   12.78795164944458    3.57240113794850
H        13.11604034344470   13.48900940969401    3.96759856476716
C        12.58430149601536   11.42622701133003    3.75189921563549
H        13.44736372732335   11.06388589485884    4.28954743770943
C        11.66532955610506   10.52564824926220    3.24688751674744
H        11.80707402058935    9.46415463942552    3.39347829365839
C         5.19966934960871    8.90665720735492    4.74943241239051
C         3.95047047993165    8.71085302637736    5.32290387787703
H         3.33954016705695    7.87738652903967    5.00600976946286
C         3.50258294097232    9.58719646477176    6.29499188663370
H         2.53225582104792    9.44037225124219    6.74625503855760
C         4.29649733448421   10.65183810268876    6.69285263838906
H         3.94170614394393   11.33058653978681    7.45434004896220
C         5.54296138632958   10.84832021246411    6.11999351415214
H         6.15931050734117   11.67791253481522    6.43328494330697
C         5.99305430992161    9.97534193552430    5.14701703461245
H         6.97725483467582   10.10326648790158    4.68632171668984
C         5.26143094137216    6.20314068824382    3.89976866891754
C         4.24209927051853    5.53501299780775    3.23505455725764
H         3.76581347596658    5.99567039668182    2.38264608675355
C         3.84543002278750    4.28507689733058    3.67830447758552
H         3.04825011634720    3.76330528702059    3.16911325576763
C         4.46837775491439    3.70248907777435    4.76984270609612
H         4.15526863008145    2.72638588403245    5.10985438469962
C         5.49737414978663    4.36489919577391    5.42305620302279
H         5.98703049015745    3.90389536486581    6.26783030498201
C         5.89791004017119    5.61322692612380    4.98760290710787
H         6.70589856037236    6.14358860727726    5.47317301452601
N         8.77221358318597    7.95184322276229    4.25975009778757
N         9.90090137724799    7.85180894577804    4.56013067571998
N        10.95508611365959    7.68076874286397    4.94589567600328
Ni        7.76437947315265    8.69942905291656    2.89185728133744
O         8.63467327545533   10.67335702591916    0.75136718206634
O         4.82942514415800    8.18709384513259    2.17679849737202
O         3.26567950320840   10.75018854612215   -1.93122926384799
O         5.10416296311287   11.87770484777062   -2.53778663036104
P         9.34218384856891    9.79845024162742    1.94013434559726
P         5.84094983253876    7.84077840519975    3.41423257193317

