97
CSD_code = SADNIX | q = 1 | S = 0 | Stoichiometry = C48H39As2N4O2RuS(1+) | MND = 6
As        4.18471580777174   13.34971242524179   24.40827908011659
As        4.76298907534691    8.77932058211115   22.97703233754693
C         2.82294401662429   13.86937590494729   25.69179139648089
C         2.09147586078267   12.91806972429554   26.39043596047778
H         2.28723032531127   11.86211913952701   26.22606789618809
C         1.12504932902288   13.31534434757432   27.30020693916483
H         0.55847464068409   12.57204085818815   27.84075246865802
C         0.88674403158071   14.66217826963703   27.51328403154374
H         0.13168067515512   14.97096906916659   28.22001203448926
C         1.61703034270120   15.61682255828491   26.82161825084180
H         1.43168745127897   16.66705362802375   26.99059544242456
C         2.58257269959811   15.22357737903231   25.91339508110217
H         3.16020362959980   15.96318530977251   25.36495367224803
C         3.76178384489198   14.54736951112903   22.93687028755521
C         2.80549228054422   14.09450293122719   22.03165295684197
H         2.36745862454944   13.10883355993190   22.18036215969610
C         2.41982172333781   14.88561640260255   20.96462819887552
H         1.67373657716331   14.53156074699869   20.26791745807317
C         2.98612187678008   16.13936853629266   20.79559936015779
H         2.68856899751640   16.75820000712258   19.96271220082189
C         3.92658267483121   16.60332698613810   21.70016970467453
H         4.35772182605374   17.58548291996740   21.57479371734172
C         4.31386635522197   15.81308255070745   22.77028135271643
H         5.04565275703852   16.18107938268220   23.48305326718128
C         5.78418945559170   14.09488595017905   25.21198345253676
C         5.91350887022194   14.11711898535973   26.59769298448000
H         5.06838583922314   13.82218361563298   27.21379672149349
C         7.10692178228587   14.50811615268664   27.17951448831549
H         7.20002580645805   14.52758039535325   28.25529622240439
C         8.18107689026995   14.87003591068242   26.38330690035168
H         9.11182262589775   15.17363117131203   26.83796274074655
C         8.06404314264844   14.83973806953002   25.00300399352147
H         8.90320714203732   15.11893127999274   24.38268652957662
C         6.87357016832600   14.44729194800144   24.41821820764524
H         6.78033776656200   14.40963809654256   23.33491430217686
C         6.42928781298155   10.81812265667076   25.96843198819398
C         7.14737717055225   11.66791367369530   22.74541232374634
H         8.20516926714345   11.78342418490797   22.97250333240860
C         6.76694540845593   11.88270631155735   21.38439021951866
C         7.74561755211997   12.14522027892541   20.45108760598739
H         8.77487970194101   12.20360877879740   20.77352357599837
C         7.46164599055458   12.32797492915817   19.07943825207167
C         8.45271550914246   12.56384547557351   18.11077226748445
H         9.48380643413967   12.61713910585327   18.42436060859603
C         8.11035127719794   12.72091958527293   16.79085266768877
H         8.87433062399801   12.89982355667923   16.05095022820552
C         6.77245285120057   12.65178935441329   16.39494309444670
H         6.51606074498793   12.77797442999297   15.35489861112481
C         5.77863649967585   12.42318898532231   17.32099772543999
H         4.74368645529370   12.36860724805937   17.01802096070080
C         6.11531695521998   12.25804518572552   18.66305947262210
C         5.38867494027450   11.80555559571160   20.93710452400985
C         2.55915501660164   10.76550149275710   23.80778596583172
C         3.31985217157093    8.01962162230919   21.92120080287225
C         2.47348584105833    8.87473059253515   21.22286857244638
H         2.62533125859013    9.94941945458461   21.29754172694502
C         1.44451423427730    8.36378093999411   20.45121738916880
H         0.78510877321094    9.03182698789524   19.91650904943772
C         1.25459608856700    6.99371633895367   20.37405203138755
H         0.44740083901617    6.59442946340502   19.77920038567020
C         2.09635888161575    6.13585906083226   21.06325237687655
H         1.94664214927878    5.06831910910840   21.00356974023531
C         3.12761615506795    6.64449719873174   21.83419219748381
H         3.78598410118970    5.97662281251903   22.38088806495210
C         5.10666108723738    7.34146286413156   24.23495583656669
C         4.25591255241234    7.26783924559847   25.33501666774352
H         3.48085538983910    8.02277143033166   25.45601643135553
C         4.39982962502665    6.25057276273324   26.26080880005235
H         3.73915905340834    6.19843602957314   27.11309733488773
C         5.39418019547516    5.30002236302635   26.09104132905618
H         5.51107917259048    4.50740765539831   26.81428619703427
C         6.23478963075511    5.36082737929415   24.99181417941490
H         7.00188095111942    4.61293532781162   24.85569881425968
C         6.09304871988190    6.37709679027400   24.06108636227039
H         6.74302612411653    6.41859389251529   23.19268930851829
C         6.23882947303681    8.71002826463750   21.71540679862485
C         7.54803877339472    8.78043683093776   22.18914061576334
H         7.73075979110601    8.74182925819945   23.26066281087116
C         8.60656303158746    8.89398716236776   21.30525427728798
H         9.61862138612667    8.93692996780117   21.68007540026588
C         8.36752641587035    8.96086321501362   19.94195844056198
H         9.19214052675005    9.05766146474179   19.25225467565939
C         7.06978219982539    8.89483621847541   19.46153308054533
H         6.88472865889786    8.94047103373773   18.39807710868143
C         6.01003707941189    8.77332174340924   20.34374541959043
H         4.99095972479994    8.71585991122114   19.97191066011521
N         7.07190032096759   11.16539538895525   24.89127668028737
N         6.38478418197016   11.32379982411785   23.74526164938000
N         5.15859196416077   12.01804660028703   19.61551414727915
H         4.18821490144229   11.96923066324066   19.32152027177812
N         7.12114142341749   10.65106511397483   27.10423945739603
H         8.10720762606014   10.84253915412046   27.11975451140757
H         6.63726964367158   10.40994634300354   27.95035683491529
O         4.38940805202279   11.56901035702740   21.64547087679754
O         1.43701970206936   10.55424905993272   23.89352119850459
Ru        4.39010605255164   11.04649419916486   23.74016670162183
S         4.72475095141139   10.53420376925201   26.04941956152789

