107
CSD_code = SADQET | q = 1 | S = 0 | Stoichiometry = C50H52N2P2Rh(1+) | MND = 6
C        12.17134610138672    3.36018665894203   15.82135143302999
H        12.05390148465160    3.31436156316986   14.72704271747459
C        13.53878874952922    2.77533276531886   16.17787739517190
H        13.68389233929066    2.83926946114195   17.25844967156148
H        13.56658982908426    1.71896742609746   15.89841410862724
C        14.63923050272905    3.54557172266663   15.45224694764524
H        15.61501981092217    3.14996568671797   15.73761757749135
H        14.52358335236950    3.40526255999071   14.37454971200898
C        14.57241961508261    5.03703308244121   15.77427844027618
H        15.33171795662581    5.57144689603145   15.20144873849397
H        14.78328322186921    5.19136856594596   16.83478717262874
C        13.19020591160700    5.59548391654915   15.44167320336495
H        12.99875575792260    5.46813987626664   14.37395427635948
H        13.14213203968651    6.66477203097905   15.66869363800128
C        12.13716833609667    4.83855539596752   16.24588602377132
H        12.43601991368264    4.87395677886240   17.31161409516131
C        10.40167757013082    1.52636753165091   13.93225242452534
C        11.57553320290413    1.06240461212435   13.34510974602842
H        12.35312703264389    0.64202897349797   13.96908573081539
C        11.73381206045020    1.12328055729164   11.97273183684486
H        12.64350060420250    0.76068080615237   11.51880553769269
C        10.72055865573676    1.64333417201535   11.18237193521605
H        10.83953835319243    1.67924222831476   10.10991814004583
C         9.55273891825022    2.10998292045117   11.76517173061424
H         8.76264200402387    2.51095698376704   11.14774720102553
C         9.39267892234007    2.06042963695149   13.13940232964127
H         8.47875232383450    2.41652495810091   13.59470922468552
C        10.85659476857164   -0.17319189051269   16.20606207977922
C        11.67164994566145   -0.30688026524405   17.32243141474989
H        11.94513267166720    0.58174407954868   17.87478136076369
C        12.12516304069193   -1.55754729489066   17.70139549943535
H        12.75969761262654   -1.66306035853451   18.56821319523716
C        11.76471430458030   -2.67385784666112   16.96368833280200
H        12.11863327176254   -3.65021514664413   17.25701308121761
C        10.95488810088320   -2.54198274438492   15.84540007977468
H        10.68119926001613   -3.41386882751514   15.27079023201166
C        10.49940259570821   -1.29388677691106   15.46254374182063
H         9.87497000970559   -1.18080545981845   14.58621104285733
C         8.50612201658194    1.59100585487633   16.13857941658270
C         7.75361164318171    0.46777717280032   16.45392452768814
H         8.22381054301410   -0.50420067475813   16.50024114272349
C         6.40124943506697    0.60039325242720   16.72349394761599
H         5.81749419617197   -0.27163898626215   16.97598410970257
C         5.79964664138072    1.84749175947703   16.67116376322113
H         4.74538571510236    1.94460787864342   16.88136546996403
C         6.54810248870940    2.96995893142494   16.35036402888976
H         6.07685081285879    3.94019259869351   16.29886231595411
C         7.90172047968027    2.84752820497259   16.08516279785657
H         8.48668099882566    3.72133701722699   15.80122545010067
C        10.83717404030832    6.65628646926952   13.62506486223174
C        11.33749230850543    7.78664414256033   12.99364907831486
H        11.42617578533309    8.71799407908318   13.53269278316084
C        11.73706864449601    7.71428972316404   11.66983632672591
H        12.12482627426429    8.59469420683451   11.18062896532204
C        11.64656761988572    6.51927342350690   10.97574728670530
H        11.96007539418137    6.46939482102673    9.94441803439414
C        11.16644487708533    5.38350962667691   11.60939138743556
H        11.10982453137951    4.44444447421969   11.07890675628844
C        10.76685788419911    5.45129312490465   12.93018664084083
H        10.42063129951692    4.56261122423709   13.44337312201181
C        10.70954190652946    8.25189233234117   16.08243657632264
C        11.57152262209865    8.33318744429308   17.16875607143682
H        12.00192509827279    7.42764969059390   17.57410407944239
C        11.86563108025531    9.56327825172465   17.73094548828382
H        12.53726762544466    9.62454698004696   18.57387161401953
C        11.29596956897057   10.71384620599829   17.21130928330190
H        11.52746258154186   11.67361738655893   17.64683096541306
C        10.42004349313899   10.63529129302290   16.13881469097595
H         9.96739298405167   11.53207839403174   15.74362202852004
C        10.12120564608840    9.40831035000597   15.57675900358150
H         9.42369993110688    9.33701534778343   14.75267393356417
C         8.48188190680512    6.61499239254068   15.34161336365768
C         7.78233080590053    7.27726379699305   16.34536560539852
H         8.32230098604328    7.80945993957122   17.11593594928302
C         6.39830757811903    7.27093841847751   16.34908780957725
H         5.86196233758736    7.78947895479703   17.12944093849400
C         5.70474026592875    6.60592087500997   15.35109529889391
H         4.62524214063902    6.60693327211106   15.35083802209848
C         6.39776406168427    5.94725289285254   14.34765262040690
H         5.85837398888565    5.43511804220325   13.56485748859281
C         7.78168166455693    5.95209927880123   14.33987984892408
H         8.31671132285188    5.45519186967271   13.54368465926872
C         9.51750608862899    2.40124716224861   19.08154058160077
H         9.64832615638461    1.43443695722460   18.59127024615816
C        10.66916187096572    3.04251630463254   19.54596836811594
H        11.62912830825444    2.56742120909767   19.33623255100023
C        10.67272865820316    3.96937982617110   20.74332296794712
H         9.88647101223633    3.66049906445375   21.43205901023994
H        11.62238692540905    3.87073449106596   21.27124836339965
C        10.48058678699656    5.44043561570378   20.33194221425186
H        11.45954894525899    5.89604418712487   20.16393317291879
H        10.00104522967194    6.00020457440171   21.14116389010853
C         9.66714344943147    5.59314924329181   19.06702480496553
H         9.85713125507621    6.52999147795367   18.54110674288792
C         8.45988267531459    4.95062193257708   18.81674690727276
H         7.80012003795846    5.40353857280051   18.07604934411937
C         7.75529471636716    4.06942507865544   19.82693840299237
H         7.98142062918709    4.43352944341667   20.82970379112033
H         6.67766328374291    4.16167909002632   19.68517479023627
C         8.14914290932083    2.58608327137003   19.69215644139099
H         7.42174327875690    2.07504492662068   19.05926773119652
H         8.12242723977764    2.09848376791424   20.67187450843949
N        11.07515148180163    2.66343789218490   16.48677825267486
N        10.75067193486187    5.31238650223343   16.15905365394083
P        10.27751199884007    1.49159441096181   15.74800663870884
P        10.29827282451916    6.61588128695758   15.37158667293501
Rh       10.02499892466321    3.96672674063274   17.75679134948873

