63
CSD_code = SADROH | q = 0 | S = 0 | Stoichiometry = C21H33NNiO4P2S | MND = 4
C        15.62892203810246    2.04143364329446    7.83968954639072
C        16.54328261041948    1.94039482657470    6.78611320062039
C        17.67811950404202    1.15467020597165    6.87452393110741
H        18.36755232542550    1.09871204210770    6.04852204095370
C        17.91360209170559    0.44050092285288    8.04771179611018
C        19.10714130701680   -0.42182177646037    8.20405115684994
C        21.05724890829899   -1.22747445858491    7.19662175642717
H        21.70107577749083   -0.88495034474571    8.00954062142324
H        21.56381326774680   -1.12868771806201    6.23997428524335
H        20.78504278395648   -2.26867204168055    7.38224047917713
C        17.02337674518649    0.51842389378778    9.11755312733708
H        17.22026856504717   -0.04085024096429   10.01830088691438
C        15.89933220434565    1.31470780042223    9.00393348587134
C        12.32615501302671    1.11592622291830    9.65332417763091
H        11.39767857052598    1.69388607758579    9.61105850144777
C        12.48296350805065    0.33866242111604    8.34701468133304
H        13.37704162669733   -0.28433462459618    8.37854073178516
H        12.57837884403880    1.04308295209622    7.50895460853384
H        11.62176646804677   -0.30082682162197    8.16318671135814
C        12.33580212028489    0.20321805275813   10.87147559362988
H        11.57010749567531   -0.56369992591507   10.76704283318236
H        12.13773370381009    0.75978674686159   11.78457811233630
H        13.30252716170229   -0.28733301749907   10.96766101561806
C        13.55882557957986    3.32019063521786   11.23617702910893
H        13.76938604488622    2.62798775701913   12.06040330185856
C        14.63631057566556    4.40055191601033   11.18535799828800
H        14.43457677663062    5.08032251998497   10.35692625231854
H        15.62056242322728    3.95585387529869   11.03891983157951
H        14.65144190348079    4.97690332808227   12.10833553883523
C        12.17070686044121    3.92892936142225   11.37607344014118
H        12.14261069698529    4.60009933501925   12.23272273232793
H        11.41108866056040    3.16408071347587   11.51976646203469
H        11.91681930559951    4.50256919112826   10.48648263667232
C        14.14204796421012    3.25029296705674    4.11167919719034
H        13.30577786523155    3.95140429869408    4.02847149415824
C        13.59285233421980    1.82663756277358    4.14585088239252
H        13.04998636639846    1.59809942891651    3.23088410019962
H        12.91225527895948    1.71068625737533    4.99039681846258
H        14.40554667928153    1.10946127736914    4.25442683511859
C        15.12744892004152    3.45725836813596    2.96916877756330
H        16.00971006646791    2.83855969763487    3.11711533661017
H        15.43838346654941    4.49678813819941    2.89807662254230
H        14.66384878277692    3.17532770414469    2.02528971157980
C        15.61255024855171    5.28122730716151    5.72439772661687
H        16.40871892296152    5.33106485251524    4.97291035681763
C        16.19716263337648    5.50568779222171    7.11841528474575
H        16.53615119511402    6.53252992277652    7.24289215265304
H        17.04005788230593    4.83854546676488    7.29886817022519
H        15.42333792554229    5.30100273148171    7.87191243100205
C        14.50928224000663    6.28630112703766    5.42331940246119
H        13.67201629652052    6.13121086974941    6.10274010967375
H        14.14921751645686    6.18762436802832    4.40180937587039
H        14.87756008464919    7.30191209942992    5.55741287662882
C        11.55144538118356    4.69371833366130    7.77044372269029
N        12.58476207977647    4.15696378652142    7.57719419200222
Ni       14.09266780527349    3.10801133367797    7.69944352281696
O        15.00481200901856    1.42108863631359   10.05106159094196
O        16.27995744812192    2.65766126405874    5.63417126967926
O        19.89312476172254   -0.41987820676758    7.11545246696685
O        19.36027930066519   -1.06358081031614    9.19435890202955
P        13.70907323704528    2.34905070943203    9.67575006544630
P        14.92138557826376    3.56396820167162    5.75691969119273
S        10.18471826152157    5.45193104338876    7.98768840922883

