60
CSD_code = SADTIB | q = 1 | S = 0 | Stoichiometry = C26H29ClO2PRu(1+) | MND = 10
Ru       -1.33274580038342   -2.98503786043019   -4.23760062944460
Cl       -0.14301618860887   -4.05736104294353   -5.96729768152202
P         0.89979293504825   -3.35037389005643   -3.34401729532558
O        -0.96271366575883   -6.88387409482150   -3.81038735784105
O        -0.26482453030662   -5.51348831056386   -2.14739864583134
C        -2.08926350527307   -4.82265608706820   -3.36682089480715
C        -2.91560092870382   -4.64295134879272   -4.52542711303187
C        -3.62894791385338   -3.44170114113305   -4.31711315870861
C        -3.32396417452913   -2.90758420328037   -3.02715250871673
C        -2.35855867382451   -3.75615768338221   -2.43577855651665
C        -3.07729755979435   -5.59099255221716   -5.65399070762994
C        -4.05886839740771   -1.79851424677277   -2.35437981928663
C        -1.09468737285099   -5.88826726160013   -3.15614913584721
C         1.08351951317167   -5.93510988120882   -2.31360783733472
C         1.65385230092304   -5.05545818345522   -3.42497719156138
C         1.10603148430922   -2.89166208376191   -1.59068227513372
C         2.28999873005365   -3.23691885924098   -0.94032861465259
C         2.48352719582929   -2.88479532907874    0.38228805537074
C         1.50819808557528   -2.17767097802689    1.06787336882225
C         0.34352373303222   -1.80678396871359    0.41831245935641
C         0.14488029792596   -2.16010777386905   -0.90548470403569
C         2.25290486534388   -2.40095647250970   -4.10424718681247
C         2.69316659398143   -1.21918448752834   -3.50954547622832
C         3.75402726586286   -0.51916308714172   -4.05560781093409
C         4.37991201548720   -0.98498267377706   -5.20081634063523
C         3.94321818011009   -2.15650347948511   -5.79801730784277
C         2.88582267317900   -2.86484164516369   -5.25607473622108
C        -0.96651095900025   -0.82912446247199   -3.86977055872234
C        -0.83405525430856   -1.04574944114277   -5.26444331573581
C        -1.96369260518498   -1.63382208371207   -5.86770438185404
C         0.39303279965657   -0.73544411890559   -6.06216813948583
H        -4.41145614504236   -3.07684816345731   -4.96712219400838
H        -2.05079910009748   -3.75827834806208   -1.40038447238423
H        -3.43303262269219   -5.08485327026213   -6.54916973216060
H        -3.80861889825766   -6.35023281351868   -5.36906576989750
H        -2.14402681193069   -6.10929290525486   -5.86954381930040
H        -3.46466763529821   -1.34592560187328   -1.56307690064641
H        -4.96220515925448   -2.20803549829882   -1.89806451772158
H        -4.36997995475439   -1.03015685212499   -3.06039584070201
H         1.12540710944626   -6.99713148082318   -2.57293588895261
H         1.56698220032532   -5.76375820635278   -1.35144181446991
H         2.73871646204449   -4.95417909477936   -3.35563979906456
H         1.40974597400155   -5.47980825983355   -4.40273599087520
H         3.07143153075244   -3.76095564549327   -1.47090585572114
H         3.40153899881574   -3.15974664932640    0.87860219264292
H         1.66140407240011   -1.90824115273996    2.10106556917353
H        -0.41048546648776   -1.23872478509053    0.94192627337805
H        -0.75685924350528   -1.85168203503179   -1.41591937162587
H         2.21778223620196   -0.85389117818526   -2.61002253211652
H         4.09364225061711    0.38990470203000   -3.58332709586002
H         5.20796994920094   -0.43799002369023   -5.62364179183082
H         4.43010186925906   -2.52380762377173   -6.68806422186828
H         2.54661760620379   -3.77018594006713   -5.73478655592437
H        -0.10044490965531   -0.42804303627961   -3.35072101293114
H        -1.91441456432319   -0.45036498440540   -3.49149863133320
H        -1.88375052790049   -1.93582255657819   -6.90782553060450
H        -2.94810199709841   -1.27930012473468   -5.57478287075802
H         0.73585509608434   -1.60478528984621   -6.62296036385320
H         1.20083026489778   -0.36394523579835   -5.43961375254347
H         0.12775627634526    0.03752078590449   -6.78433220988618

