64
CSD_code = SADTUN | q = 0 | S = 0 | Stoichiometry = C28H28Cl2N4OZr | MND = 7
Zr        6.93189047997167    9.73403087873433    2.80850817629957
Cl        7.74294354086939    9.23473000516917    5.03932611970671
O         6.93199209188395    7.39531908502630    2.80824535657765
N         8.84711172849758    9.25619976906244    1.92094694209527
N         8.25337643845490   11.51109621570404    3.23525304612190
C         9.43490225835366    8.26787648565462    1.23869112838194
H         8.84784424713412    7.53176227689637    0.71060305636048
C        11.10983732641258    9.49182915426523    2.06180776122567
H        12.07538093450495    9.88484239031907    2.31625798083096
C         9.86825011566140   10.03219953119369    2.44145886048894
C         9.50836862683257   11.17518967609533    3.17650158012938
H        10.28064231638242   11.77717614690858    3.66326313385657
C         7.83133880449130   12.54758611641247    4.07989083302684
C         8.15353006964132   12.54196183446491    5.43450777148903
H         8.74736278983505   11.73295353600188    5.83408790899800
C         7.65798119485416   13.53759500876738    6.25687831171200
H         7.89579954441767   13.52925448071425    7.30975350767494
C         6.84908256815508   14.53029405513533    5.73683217613586
H         6.44690768438218   15.29310420805557    6.38759337108787
C         7.05364113870885   13.58465932084455    3.53966868750628
C         6.03995123148383    6.55592452089871    2.04749253350204
H         6.33909090883774    6.59154258370227    0.99201540657566
H         5.02389922766538    6.95442673780701    2.13735711104309
C         6.19531723184350    5.14848873429032    2.61179199877686
H         5.94325981322314    4.38392092455761    1.88135488719860
H         5.56843412286494    5.01763029540053    3.49442474959194
C        10.82862383445180    8.37308434177666    1.29518273204685
H        11.53470216580018    7.71322921774481    0.82909990854916
C         5.64413113237103   15.65748221487299    3.86521902080519
H         6.17192328290462   16.61096543345615    3.85817888805159
H         4.77737640965949   15.76418410529128    4.51552071681848
H         5.30317891871971   15.44312047377246    2.85608673580825
C         6.53806201611447   14.56887056272138    4.38103161674062
Cl        6.12033363229866    9.23956534611374    0.57789612205510
C         7.66899904497251    5.14857098877348    3.00421256940983
C         7.82428990284593    6.55596189655099    3.56873709143865
H         7.52526412013196    6.59147454437694    4.62425165282342
H         8.84027868386975    6.95459908735337    3.47870136538854
H         7.92111020404983    4.38388754900107    3.73450816717210
H         8.29586373501864    5.01786221627819    2.12154445601609
N         5.01665633215071    9.25572173217095    3.69591588724454
C         4.42877523619195    8.26724375265870    4.37782800131980
H         5.01575532160502    7.53092423440459    4.90574145916533
C         3.03504322900422    8.37250277652514    4.32130076736242
C         2.75393505894347    9.49150862271864    3.55505528310004
H         1.78846476691123    9.88468392813154    3.30058375131244
C         3.99556676927761   10.03191127288410    3.17553532207666
C         4.35540323299555   11.17497727014963    2.44063010254757
N         5.61037112662409   11.51100832382938    2.38165888829184
C         6.03214432097471   12.54766333517564    1.53709180767337
C         5.70922641265622   12.54224975941933    0.18266532353019
H         5.11496356428066   11.73344189476535   -0.21667220440548
C         6.20455626467162   13.53784483121881   -0.63988326312298
H         5.96618174393588   13.52973071585350   -1.69263119569243
C         7.01403861591251   14.53020013289509   -0.12018667233433
H         7.41609069411836   15.29301709471521   -0.77102208653586
C         7.32573038574297   14.56863787150889    1.23548797534781
C         6.81031298918403   13.58460069615284    2.07706576822275
C         8.22076903561370   15.65693058622316    1.75021666037890
H         7.69625114538296   16.61225351487924    1.74908560517448
H         9.09126202564190   15.75690994823067    1.10370478568238
H         8.55592344253611   15.44683700650824    2.76215952793057
H         3.58295601270409   11.77713973791989    1.95433128632054
H         2.32894875437210    7.71250901089662    4.78715377988930

