99
CSD_code = SADVOJ | q = 0 | S = 0 | Stoichiometry = C34H58O4P2Pd | MND = 2
Pd       12.57599115437666    9.17223235687582    3.58790549488593
P        11.64423917174669    7.10410119927424    3.89785510276038
P        12.80008960748284   11.43912679702948    3.35458410618892
O        14.41002817012548    7.57902392330419    4.97087131570974
O        13.61470136313021    3.70304524798343    2.45678860712215
O        14.63033638842962    9.66899114274969    1.75596093578874
O        16.48251972880129   13.28443345331622    4.09829216823079
C        12.67477301090597    5.59646981728107    4.26952236570760
H        12.77628305492221    5.56971356915621    5.35692523881651
H        12.16680702701346    4.69307552125010    3.93520352754159
C        10.60908894678807    6.53334153854145    2.41763192732049
C         9.79121557495474    7.73418188059838    1.93885879685357
H         9.48112432256952    7.59856197300842    0.90288252523719
H        10.40955275541409    8.63509807963343    2.00418300077928
H         8.89765874947802    7.88227489851071    2.53847899272929
C         9.70614304983956    5.32103821220679    2.60609360314567
H         9.32056050618909    5.00459357905412    1.63628567297891
H         8.85373471674849    5.55924705791933    3.23796923198218
H        10.24224514078988    4.48040701589994    3.04090076506625
C        11.66962447285730    6.24079549581396    1.35279184884665
H        12.20054085522481    5.31892699869664    1.56839304929778
H        12.38739829693264    7.06455156876514    1.33278286240220
H        11.21526701864757    6.15258852075597    0.36578360099292
C        10.60719661568933    7.17025767504676    5.48333792673084
C         9.47930302396111    8.17558618879734    5.25189274565385
H         9.05922301445267    8.50926935762603    6.20059633620004
H         8.67482319163314    7.73845364589837    4.66581697368371
H         9.87456383241033    9.04617840283351    4.72158926007109
C        11.57030034579874    7.77099990676131    6.51534514751580
H        12.11373939828988    8.60671282773097    6.05349335967260
H        12.29952060361285    7.03984815925142    6.85878599545474
H        11.02568576340237    8.13920034811701    7.38450256116657
C        10.03515200231054    5.85746974863891    6.01076268997993
H         9.53356976094530    6.04454438383143    6.96107073744495
H        10.80996664976248    5.11519085166650    6.18555515981839
H         9.30519658228956    5.43447404087780    5.32753060155823
C        14.05916375690273    5.64339267955300    3.70440898980012
C        14.94184948276551    6.64027939715038    4.14411449452496
C        16.28040427456752    6.60605701007638    3.76555655019559
H        16.97642099973982    7.34117050305503    4.13348452957814
C        16.71903999973329    5.62461553252108    2.89711007416612
H        17.75549134976437    5.60703907073301    2.59340342180144
C        15.85431929044880    4.66080790088437    2.41315769740938
H        16.22674675050461    3.90994791612630    1.73576609269200
C        14.52843328501728    4.65730822877492    2.83209986884370
C        15.29271943712647    8.41995453263598    5.67968550463290
H        16.05387043589882    7.83591412031253    6.20985306856777
H        14.67505650594949    8.94620141976208    6.40815889268823
H        15.78035859889677    9.14650920215255    5.02079967512619
C        14.03625904664906    2.66316614215062    1.61280845976047
H        14.36837092526126    3.04125648191921    0.64013290489784
H        13.16227466854482    2.02861042330725    1.46998737427187
H        14.83901783903234    2.07383030544875    2.06786799936676
C        14.34278657958504   12.22590622434584    2.66629813281933
H        14.20327261022467   12.25005131967978    1.58302412744860
H        14.45100984016886   13.24457656367529    3.03585522863510
C        12.55174226898726   12.38265388352298    4.97805183987301
C        11.55444700601524   11.99296317649517    2.03704119378261
C        12.35789719143544   13.89153709950429    4.89879949867609
H        12.41122290519274   14.31518994299304    5.90231630482645
H        11.38364647074745   14.14268968452849    4.48613344016358
H        13.12858971218337   14.36680784632113    4.29589802297322
C        11.37515214091027   11.73239219377530    5.70831893687955
H        11.41442437152283   11.95524451906233    6.77441595973476
H        11.42932098828308   10.64676201997803    5.57505237841608
H        10.41889157627434   12.08093204707004    5.32866173110306
C        13.82400620114504   12.05689432323120    5.76496210784083
H        14.67882621270914   12.59919498920878    5.37352735595943
H        14.02282909731977   10.98529218571752    5.69091528962919
H        13.70628296841025   12.31567435915843    6.81736652013345
C        11.82516747144280   11.03797319215410    0.86710894291462
H        11.95679892245020   10.01980211456246    1.25908309103074
H        12.72773593827485   11.31271680253525    0.32458923755364
H        10.99326687124031   11.04267185790671    0.16313362262178
C        10.15581127295489   11.69359015494166    2.57629609790707
H         9.83639819296918   12.45128178361177    3.28747569890269
H        10.16123950552820   10.71918595404474    3.07247850969539
H         9.42716724175204   11.66615913850638    1.76625443733091
C        11.62768847195311   13.43815918437084    1.55225017633056
H        10.91130752390055   13.57733413975598    0.74160647576417
H        12.61349812515638   13.69178339762517    1.17048773929782
H        11.37623175683684   14.13988154794666    2.34147156233056
C        15.59587245354565   11.45137959738267    2.92693595625670
C        16.67777716406209   12.01642601578057    3.60819448409497
C        17.87230674854346   11.31660117038705    3.73689988662812
H        18.71110768302913   11.73878152893751    4.26562309465434
C        17.99862969124786   10.07105505512557    3.15072081771088
H        18.93760716710991    9.54257686538191    3.22650812537546
C        16.94569531892207    9.49437245044447    2.46630080778186
H        17.07176900523391    8.52554951970042    2.01279952314868
C        15.72994687591843   10.16617853629883    2.38262628334040
C        14.79527705200468    8.55250770769647    0.90997536354325
H        15.61892674925430    8.71120201756655    0.20449899007868
H        13.86135451981651    8.46405257942263    0.35407097846461
H        14.97024624332598    7.63263448465570    1.47808753346308
C        17.54468688425727   13.92206472344493    4.75903402354512
H        17.83958522261159   13.38235614985862    5.66515118726118
H        17.16891176639011   14.90649745514597    5.03582682577887
H        18.41507950443193   14.03919624523735    4.10525262464716

