45
CSD_code = SADWIF | q = 0 | S = 0 | Stoichiometry = C16H18N4NiO6 | MND = 6
Ni        3.77988996565141    3.94688008113364    5.10962484132464
N         3.39340553245346    3.67827015772561    7.40649004827023
N         5.06882970888522    2.60211644541890    5.67482222259795
N         4.13903567246689    3.70439378937064    2.80473872417190
N         2.37337868634181    2.73710331942079    4.51057298533999
O         2.49864732375930    4.31306078880920    8.20509068851624
H         1.85383665594248    4.71094378496866    7.53992112895557
O         5.08833225129667    4.27557492578546    2.02131683525313
H         5.76516804794049    4.59806669422378    2.69559425713333
O         2.61695897438803    5.38573430761180    4.58096715540293
O         1.07606260144957    5.24839244181211    6.20057095968649
O         5.06943148062387    5.26083496057222    5.67459456045498
O         6.58873302098554    5.02948870760585    4.04548870169384
C         4.75271223339161    3.20096966355699    9.39871228608218
H         4.01758114980237    3.83261648006403    9.89158230285822
H         5.74508302541102    3.61533955816083    9.56400502688234
H         4.70852185636179    2.20419430429324    9.83613617869620
C         4.43671983418237    3.15455619520589    7.93598707728392
C         5.33334638110468    2.48266151278812    6.99085865857786
C         6.43390456316492    1.74799764852537    7.43569111796947
H         6.62833819885444    1.65757707623772    8.49165873113443
C         7.27561640828255    1.14757794337230    6.51878807498060
H         8.14024787052767    0.59249002248808    6.85043509452242
C         6.98590160178339    1.27533832811427    5.17038378424662
H         7.61336511809625    0.82962866754495    4.41602201355241
C         5.86898293259847    2.00705421953397    4.80083810455186
H         5.61511626715992    2.12311783625156    3.75691030326719
C         2.74604746302533    3.39704791790273    0.80219287448939
H         3.53999606921956    3.96432706011751    0.32230898681999
H         1.79921155158412    3.91048061661249    0.64725882531990
H         2.69236089209951    2.41041771609889    0.34324430740293
C         3.05424580675022    3.28830381823937    2.26332201972379
C         2.09930427987966    2.67716055003279    3.19252150028474
C         0.93586511132378    2.05886127612656    2.73102676771196
H         0.73373942671051    2.01495299702291    1.67356896613926
C         0.04253765853743    1.51405911933703    3.63372692183337
H        -0.86936667614571    1.04963198693118    3.28957713762201
C         0.34269081786705    1.57868954137784    4.98431193752835
H        -0.32296044267807    1.17238006351756    5.72811522476867
C         1.52195376629462    2.19494598653897    5.37037302910997
H         1.78529985900622    2.25964438217279    6.41638471389968
C         1.57670660774931    5.72571901390162    5.18675452252489
H         1.04085554990169    6.57365812790765    4.68784810728597
C         6.13534754829847    5.52162127251337    5.07427082470995
H         6.74781734767244    6.30171869305401    5.59519146942645

