45
CSD_code = SADWEZ | q = 0 | S = 0 | Stoichiometry = C17H19BrCrO7 | MND = 9
Br        0.49671901131672    0.50740742453128    1.67991880877223
Cr       -2.76271844185101    2.27222439783269    1.08031476589062
O         0.54360501116869    3.47394622929059    4.02311943397874
O        -0.46837945691781    5.50193976515867    3.81110200563731
O        -2.02342867524522   -0.85519179322229    1.90973553047072
O        -4.70498463571079    2.76200400525120    3.77755908278698
O        -1.42333509366777    4.11345718471884   -0.83242961662865
O        -3.02241374017290    0.67861428107085   -1.41984229714028
O        -5.21535467960890    3.55684843589116   -0.01577953635103
C        -1.23950815427614    2.61809519037745    2.66575329141196
C        -1.13055529946447    1.27243914087022    2.27681819687227
C        -2.25252575748641    0.41902890560607    2.29622018538254
C        -3.48994385559342    0.89751233554150    2.77190516074960
C        -3.58778191359527    2.22572853641707    3.23147763104594
C        -2.46761255510232    3.07381851788361    3.18097602913839
C        -0.01779872069303    3.51043241039546    2.72347592650192
C        -0.31837207340813    5.00492268918389    2.49440440435075
C         0.78458273669066    5.69771242087820    1.69809245770699
C         0.26511549003466    4.69063647873983    4.70648707460370
C        -0.59320448459735    4.42191727286698    5.94733974069363
C         1.58820783686681    5.34640014839629    5.11755089861479
C        -3.11963982856631   -1.69406179036859    1.61828184667807
C        -5.93936643371415    2.09932065870518    3.59682171605083
C        -1.93105411707623    3.41112404887465   -0.06983380453412
C        -2.91603935122129    1.26905444828982   -0.43358845379512
C        -4.27632858324281    3.06549439380451    0.44310167039981
H        -4.32417414829108    0.21821651721713    2.86927744565998
H        -2.56376702458325    4.07000636450208    3.59091462356344
H         0.74176595758523    3.14928873678194    2.02066912829642
H        -1.27384457103281    5.16307379929789    1.98187028339282
H         0.69980578299509    5.41249024375553    0.65304491555543
H         0.66581671928922    6.77464668554669    1.78245461297888
H         1.77037154536375    5.41983968928520    2.06234208976476
H        -1.48606037082798    3.86488121091645    5.67646157808603
H        -0.02047304164908    3.84234977726193    6.66458665147605
H        -0.88620514123262    5.36929212635233    6.38896593584229
H         2.18928857043836    5.57112970250731    4.24205623565217
H         2.14027529532462    4.66494690863520    5.75756443385880
H         1.38127199304582    6.26844487210025    5.65211799868745
H        -3.79796618442604   -1.21865360008696    0.90291458543424
H        -2.68746019954245   -2.58670598768978    1.17074551084388
H        -3.66429901347732   -1.97507621740172    2.52536422033645
H        -6.12609650421939    1.89978989124051    2.53702922285632
H        -5.98583365461539    1.16719197100997    4.16898235432468
H        -6.69440024500927    2.78582157178150    3.97435602410195

