52
CSD_code = SADYON | q = 0 | S = 0 | Stoichiometry = C16H23ClCoN5O6 | MND = 6
Co        2.42662350121237    6.67981734950233    3.80763118933775
Cl        1.53928779248745    7.20143959125756    1.89023511916457
N         1.28409412290269    7.96756676713085    4.59527792878766
N         3.87758719692734    7.83420633952937    3.40698570595847
N         0.94731008356295    5.54384094911436    4.14273274911086
O         3.94396874601518    9.03598339596844    3.85521074987151
N         3.22891140683454    6.20878639338403    5.53678485980789
C         4.79189469494251    7.31226309419922    2.64480591726688
N         3.50421641567237    5.43082032667871    2.87782809688747
O         1.60328230154756    9.26727909984431    4.81383755859242
H         2.55418511118049    9.37110276255601    4.42178955072537
O         0.99344349323638    4.27731165570087    3.93316645529522
O         3.19582686069925    4.12451362588682    2.68149503040112
H         2.25655763860245    4.01425202607784    3.10065686922850
C        -0.10878087746433    6.14758601291970    4.59991400073911
C         0.08581736542544    7.55390655486177    4.83994386026241
C         4.55999681383095    5.92782554642104    2.32521780759160
C         4.31369245305772    6.87061870348476    7.55738290130721
C         3.31586481388360    4.93758841860730    5.93834170661326
H         2.89505763353385    4.18270734991253    5.28754864853405
C         5.98147492355960    8.07318820810746    2.15640112706842
H         5.98678177167415    8.11067733184949    1.06846563575966
H         6.90685285678914    7.60645890510805    2.49111016710177
H         5.92776900971807    9.08722186917686    2.54625816242945
C         3.71677996847765    7.15557942174232    6.33620578268329
H         3.65818081209832    8.18379999116418    6.00504255824080
O         4.49920405527814    9.15754985418269    8.00196136447163
O         5.55309325835518    7.73577567267218    9.39171441593531
C         4.41457466188311    5.54454423424849    7.96838230850182
H         4.88506103103450    5.31380507160244    8.91200490353244
C         4.86822452974847    7.95455423619561    8.42442420258450
C         3.89827547172550    4.56590045962324    7.13790778047516
H         3.94307067110901    3.52312092759996    7.40800615822680
C        -1.00847283251374    8.43261864139011    5.34149001347856
H        -1.35887896198377    8.08505213551783    6.31199374222956
H        -1.84637826304039    8.40590593393025    4.64745818198314
H        -0.64682510754155    9.45330753766185    5.43031109922845
C        -1.40038962929835    5.44551705045681    4.86668332307892
H        -1.28217399104814    4.39453849929781    4.61244169906964
H        -2.19600121750250    5.87133629747296    4.25788216066079
H        -1.68206334408748    5.53325494320560    5.91509889097126
C         5.00438241951683   10.29244404023158    8.71090035639152
H         5.06092907188673   10.04948678369433    9.77674270308414
H         4.26714095034602   11.07918541803213    8.54236005318075
C         5.47831815050181    5.15125579057761    1.44505392238027
H         5.09944171389663    4.14047244768765    1.32152540341771
H         6.47701574594937    5.11492435487383    1.87718532953408
H         5.54595176305236    5.63261526707792    0.47136960131760
C         6.37160695633945   10.69841545863306    8.18207557169861
H         6.70080584837844   11.60391417316258    8.68294288300123
H         6.31784692666153   10.88227682040624    7.11202831362274
H         7.09516321094530    9.90898626037808    8.37088547917807

