61
CSD_code = SADYEE | q = 0 | S = 0 | Stoichiometry = C31H23NNiO2P2S | MND = 4
Ni        4.18099951819061    7.10098368932592   17.03327664530834
S         7.78636626904545    6.81477183665702   19.80250144721100
P         4.82423257775332    6.66492582387916   15.02692859028123
P         3.00634441028387    7.55515321527945   18.76870096648014
O         3.46891752073244    6.49559160068888   14.12650400529484
O         1.49928152255999    7.90244046064768   18.23599985069559
N         5.82504737150657    7.00773402174152   17.87362186323628
C         2.49539901684482    7.20634768138895   16.18418474519171
C         2.34399730172332    6.89850706309985   14.83018793137058
C         1.11268580357675    6.97931978104084   14.20011047246914
H         1.03474561967073    6.74608897281415   13.15004691587084
C         0.00361804421800    7.36264265571852   14.93632116444555
H        -0.95916896663126    7.42501474274814   14.45357491318872
C         0.11210122869524    7.66576219244099   16.28377284804469
H        -0.74924410879007    7.95618444986609   16.86414505864157
C         1.35397785888873    7.58881385497255   16.89293770437203
C         5.91063661584739    5.42363846544983   14.30000437020318
C         5.52061757419385    4.60285940032996   13.25025490185716
H         4.52397047575711    4.69047822577023   12.84407107875237
C         6.41819870854751    3.68353866007438   12.73549593186377
H         6.12251167250941    3.04608615783751   11.91493724102917
C         7.69147783348630    3.57771531634698   13.27119153518685
H         8.38651122806229    2.85669564549074   12.86681005871054
C         8.07453647587358    4.38895099132643   14.32904409165404
H         9.06447732857833    4.29813128487254   14.75034531739550
C         7.18511266538908    5.31042409586418   14.84738314890272
H         7.45923094589202    5.94380494278099   15.68035058231326
C         5.51512085718882    8.23563829726558   14.40870849698878
C         6.05731042646325    8.36723324652062   13.13731198127701
H         6.11486318806283    7.50595136996102   12.48642290986825
C         6.52070054025298    9.60191838597141   12.71966214397833
H         6.94614431376105    9.71144781291890   11.73284551883252
C         6.44416848797216   10.69762563147833   13.56570601361824
H         6.81175704031561   11.65769918889355   13.23455817545661
C         5.90147876199668   10.56693903507517   14.83424447823236
H         5.84555650188524   11.42219000252236   15.49122531133927
C         5.43598531205154    9.33505253084181   15.25501591584054
H         5.01389723899071    9.20489922842529   16.25703663035128
C         3.19552559720273    8.72796922747129   20.12375976877255
C         2.30594513897318    9.77380662763334   20.33285106913420
H         1.45618332081476    9.89316032904604   19.67721188737864
C         2.51509033181665   10.64679226116878   21.38627702660085
H         1.82123022087329   11.45696858348536   21.55751346716140
C         3.61289319257989   10.48680773555802   22.21589479523816
H         3.77381948211231   11.17403518633907   23.03338841006390
C         4.50897872953845    9.45109028781301   21.99670233175078
H         5.36901553155203    9.33174600134859   22.63811143420110
C         4.30447926318863    8.57213675760025   20.95081977314237
H         4.99927605747828    7.76547369175721   20.76300658148599
C         2.78578390698795    5.95659590655928   19.61598912071599
C         2.10648360636155    5.83349429815611   20.82082566361289
H         1.70898629907729    6.71451165079757   21.30515043009885
C         1.95049854729471    4.58199461954037   21.38902512438891
H         1.42631164321451    4.47905007787771   22.32785601495468
C         2.46983974260088    3.46097960765235   20.75990494798534
H         2.35010165322077    2.48779531279719   21.21272906938833
C         3.14466220969567    3.58285611017162   19.55558394897195
H         3.55033322979539    2.70804742289484   19.06949984589380
C         3.30102407247971    4.83146294093098   18.98336551775893
H         3.84114377247989    4.95232592339287   18.03857229475466
C         6.64442926792382    6.92569948153089   18.71852052080669

