62
CSD_code = SADZUS | q = 0 | S = 0 | Stoichiometry = C31H26ClNP2Pt | MND = 4
Pt        3.79815006011265    1.32428124782455    2.74162927899851
Cl        2.68655477065516   -0.41541640980087    3.71474333173529
P         2.13487408005139    2.81061708959581    3.13327591932148
P         5.56133984823337    0.15036594653916    1.90354197031806
N         4.76956673630076    2.92717601146167    1.92391961699095
C         6.01138211190152    2.81776405839610    1.42462383351057
C         6.62784258172270    3.84785514467296    0.75457471568284
C         5.94055551432926    5.06553168942299    0.60069403370344
C         4.69741049844285    5.20032000838601    1.12907317980056
C         4.07632114568926    4.11491424825823    1.82208110002617
C         2.82976436983797    4.24710334892023    2.40035557304206
C         6.76111264014810    1.53069641192413    1.65296119685713
C         0.65132992139991    2.36463349963259    2.17668452976539
C         0.77007049223687    1.37829170493280    1.20331623116242
C        -0.30414170921369    1.07215876230411    0.38951371226273
C        -1.50015252910223    1.75617161518466    0.53977095546474
C        -1.62024423287991    2.74513605122745    1.50348922715795
C        -0.54780750135863    3.05387196520031    2.32002625925468
C         1.46106596661306    3.20409433601816    4.76854755889426
C         0.60260740565975    2.29619977908560    5.38312519810441
C         0.11207222953292    2.56264166829943    6.64684348044878
C         0.47737312374018    3.72909636046250    7.30208952806266
C         1.34288688366609    4.62618044973806    6.69757961665355
C         1.84196271000022    4.36250581123362    5.43462101508659
C         6.52626475441765   -1.21309765950250    2.60919882008179
C         7.89688678004249   -1.35609048622800    2.41336708227077
C         8.56124319861497   -2.43297548500784    2.97211178334389
C         7.86696419387155   -3.36706132202808    3.72482120248286
C         6.50331016391660   -3.22475823556613    3.92390423361642
C         5.83144706399721   -2.15014310453293    3.36981094975950
C         5.20800636751492   -0.37198727989619    0.19861189137784
C         4.32848883810877    0.42562588730178   -0.53086512798264
C         4.00770838878973    0.09494606525661   -1.83319451934704
C         4.55668831746478   -1.03830237443638   -2.41324857359499
C         5.42289856529995   -1.83918004744697   -1.68768718468954
C         5.74957490291222   -1.51160510041552   -0.38311443374962
H         7.62475476182402    3.72436253211136    0.36486056795182
H         6.41053093275374    5.88050346291227    0.07055156676075
H         4.14201393139586    6.12031324944053    1.03797184748590
H         2.26027552334460    5.15817119218759    2.29904727956259
H         7.45298390251570    1.33527192226333    0.82910636889591
H         7.33898251482721    1.61812727325812    2.58184300484390
H         1.70986031031869    0.83557267013050    1.11462483042991
H        -0.21305004852375    0.29733411252686   -0.35782253416293
H        -2.34235559504114    1.51640413517922   -0.09284898692449
H        -2.55456447889823    3.27569495256026    1.61862222868929
H        -0.63681654548594    3.82164599937539    3.07701613215190
H         0.33556163916036    1.38519336728006    4.86477784639833
H        -0.55331355851817    1.85959774949937    7.12641344189273
H         0.09101174358719    3.93577223188068    8.28961736081628
H         1.63139103812542    5.53064544891121    7.21387015417715
H         2.52661236396843    5.04747582620773    4.95280403627519
H         8.44354365825676   -0.63352650888333    1.82424006712228
H         9.62507877529976   -2.54447998725481    2.81969813949415
H         8.39286939768753   -4.20458053355074    4.15897180947065
H         5.96339863860423   -3.94914266389843    4.51500421692258
H         4.76952263683597   -2.01783720581848    3.52936651288388
H         3.89467353813435    1.30582415988536   -0.06546218209677
H         3.32507230741693    0.71574476441408   -2.39442240884006
H         4.30295068602145   -1.30129154752171   -3.42942903855282
H         5.84382186677915   -2.72618027084513   -2.13806455751853
H         6.41821140694957   -2.14307798867137    0.18474510999443

