68
CSD_code = SAFBAC | q = 0 | S = 0 | Stoichiometry = C33H29NO2P2Pd | MND = 4
Pd        4.90399143952224    0.68295777780540   -0.30195052121469
P         5.45566354153723    0.26536115517487    1.82382913779400
P         4.38184251384218    1.58394562989737   -2.30385514280730
O         5.00972067601497   -2.07330381714291   -1.13497287487478
O         3.18746025986572   -1.20752550232506   -0.11525937358388
N         5.21289288886441    2.67697952283761    0.22620776660519
C         5.10346073057380    3.67573313252322   -0.65202264055464
C         5.13510147210336    5.00283276818844   -0.27738106853386
C         5.31262297232456    5.30750347948816    1.08088267807502
C         5.44294154977303    4.29848311493980    1.98528628291136
C         5.38092843459288    2.93714499239314    1.56256216178650
C         5.44503706537759    1.88993803142443    2.47687785623369
C         4.99819219243237    3.31766073384313   -2.11712117497257
C         7.17384412637056   -0.36253831831963    1.74561759868066
C         7.82820765431206   -0.26910886844648    0.51704563391045
C         9.15677950235971   -0.63673546218712    0.41261551249380
C         9.83959889421779   -1.09184325311363    1.53024995085801
C         9.19536746896151   -1.17546642448659    2.75437023323413
C         7.86706463757930   -0.80736881124856    2.86611147092210
C         4.63718130255534   -0.87168600620859    2.96784589196589
C         4.82253353264918   -2.24254589442471    2.80470258933297
C         4.14868968529192   -3.13095458408078    3.62001399345925
C         3.28320252785923   -2.65848604524608    4.59582115383700
C         3.08588519781726   -1.29619198933895    4.75007758548378
C         3.75519586009739   -0.40223441171162    3.93320805760889
C         2.57562737655416    1.81427411685282   -2.21247053384550
C         1.76677480520424    2.05627740002515   -3.31670110153513
C         0.40343932258948    2.22559278622257   -3.14866907538922
C        -0.15700654963611    2.15539981038429   -1.88409375104119
C         0.64494598496867    1.90670194847740   -0.78073840446244
C         2.00698957353606    1.72994151470247   -0.93948510947576
C         4.73528674381985    1.15129051683560   -4.03039863441412
C         4.71769227871842    2.07384857511162   -5.07233435218842
C         4.98706560335740    1.65732979277220   -6.36344979925582
C         5.27753474474487    0.32661452038438   -6.62071816538526
C         5.30893575305273   -0.59176088568818   -5.58397265227827
C         5.04130149695628   -0.18202404838682   -4.29021191762600
C         4.43440073509322   -1.14767184908223   -0.61907177056095
C         2.48656253628618   -2.45485181168359   -0.17521342886187
H         5.04130523395387    5.78488898739521   -1.01355645409510
H         5.35024012834155    6.34054165360899    1.39594904221640
H         5.58708605395632    4.50055839220040    3.03548064473390
H         5.68394589170281    2.07566794629305    3.51468810538539
H         6.00025912730443    3.35110290839604   -2.56590479555154
H         4.35823811136624    4.03203442700659   -2.64492754642685
H         7.27271158710974    0.08105525856141   -0.37078986946206
H         9.66276806050396   -0.57580663233927   -0.54018234545195
H        10.87646024329606   -1.38343137252566    1.44662965022853
H         9.73157940658803   -1.52923135748943    3.62345702921134
H         7.35625451829774   -0.87241572427234    3.81797063500307
H         5.49433444942071   -2.59780487190192    2.03322796883931
H         4.29248936171889   -4.19471604702865    3.49524110828230
H         2.75768666497696   -3.35539642524794    5.23261900113878
H         2.40582145908953   -0.93148939287629    5.50662647079845
H         3.60191711945567    0.66372044258318    4.03260302183228
H         2.20032131529547    2.09924107268064   -4.30618543828744
H        -0.22375217009552    2.41028742133509   -4.00877444938066
H        -1.22181413739675    2.28617376620851   -1.75900862826334
H         0.20493175795823    1.84117265161961    0.20347105812089
H         2.63817631385072    1.51226945891483   -0.06545121170771
H         4.49856443636862    3.11409378702015   -4.87619084453089
H         4.97139262376465    2.37317911157781   -7.17265913343621
H         5.48705450880244    0.00840098784672   -7.63129176237615
H         5.54631807856452   -1.62605578727974   -5.78314442656675
H         5.07805487458341   -0.88560177274611   -3.46727949679916
H         2.24670387409005   -2.76297530362018    0.84284234885844
H         3.12407014154510   -3.19979755341173   -0.65555928413463
H         1.57142443370259   -2.31197937030036   -0.75043446140413

