59
CSD_code = SAFDIN | q = 0 | S = 0 | Stoichiometry = C17H38NP2V | MND = 9
V         2.31710453085689    3.36172431699012    3.01236876006740
P         2.82542271815430    1.46591921535117    1.76819770251649
P         0.38830811061050    4.61335529984105    3.41766869821780
N         5.21705613451348    1.65912532933041    7.92744421242953
C         3.15535319262616    4.45720254729405    4.73359718470071
C         3.53376430541655    5.05589817504342    3.50307084652869
C         4.34173443756074    4.14255877314250    2.81700423361995
C         4.45562778344276    2.98355915175230    3.61683100661890
C         3.74764068094991    3.19049512430635    4.81215361488556
C         3.76467466513613    2.29650898257350    6.01417950663343
C         4.95804495140834    2.66303979487631    6.90796110645595
C         6.52448479601672    1.83967893570525    8.52239676783425
C         4.18937435647905    1.63425791120657    8.94680503371703
C         1.53016464388658    0.86804123575800    0.60102704949675
C         4.25650290186261    1.49313456718246    0.60350918182789
C         3.20005017270325   -0.15801600621605    2.56576070370703
C        -1.20384074048121    3.84904201118903    2.89156623199585
C         0.13920451861119    6.28114295996737    2.66117757041700
C        -0.09891549299458    5.09383728905026    5.13392615863141
C         1.87170707695657    4.06811543582996    1.05640683616234
C         1.11526808707847    1.92546324120455    4.00533491263118
H         2.65808525788784    4.95882622628792    5.55214082324054
H         3.37444085238671    6.09223302079237    3.23217277563419
H         4.88141276479334    4.33124479856771    1.89822568277145
H         5.12362752665450    2.15205889118630    3.43368193658469
H         3.87649026433562    1.24955962899272    5.72186116719039
H         2.83156642082946    2.40504971008593    6.57089305687705
H         5.84910703868019    2.72414738144480    6.27571662614972
H         4.79500622777640    3.66332268942912    7.35100489233240
H         6.62801061052855    2.80483212291236    9.04509399888478
H         7.28502861543747    1.78468614991797    7.74448208366091
H         6.70373227030798    1.03832211762716    9.23855288123288
H         4.42989564479172    0.86026403791024    9.67469915869123
H         3.23147906995889    1.39054823402364    8.49338763410382
H         4.09563192706156    2.59656765606540    9.47725874378893
H         1.38181772348833    1.60038262470527   -0.18878968608777
H         0.59248659721857    0.74105402382852    1.13979766923985
H         1.83009116561228   -0.08559807523819    0.16495905261933
H         4.22328811990189    0.62037410830408   -0.04944074429163
H         5.18322855832569    1.48129859303868    1.17321886307937
H         4.23260386425266    2.39614585555044   -0.00130970266510
H         2.29037411400036   -0.56663404573828    2.99980226312085
H         3.93510686423223   -0.01943211341327    3.35573640513276
H         3.59207038721225   -0.85708054251040    1.82637289009831
H        -1.99927068995375    4.59478901724318    2.90949120446592
H        -1.45265025999029    3.03442936969120    3.56769672199517
H        -1.10184142915564    3.44861449572740    1.88431235938707
H         0.03029583192953    6.18616564346939    1.58390800538180
H         1.00571498865998    6.90376764184631    2.87520692106936
H        -0.75233064983377    6.75173929422343    3.07665266746923
H        -1.14890803923528    5.38675169843838    5.15652750660417
H         0.51363629662215    5.93664035424732    5.44944734128832
H         0.06062857319883    4.26493779706604    5.81916611901898
H         0.83148000947345    3.91863059352482    0.74621029506925
H         2.49109789497605    3.64300417364045    0.26226763771561
H         2.06348651066841    5.14250944107560    1.04364114011408
H         0.40255525253731    1.42650516832188    3.33855872621741
H         0.53101742559952    2.32900074412426    4.83785614136892
H         1.74867456781518    1.14805718214765    4.43335142222421

