40
CSD_code = SAFDEJ | q = 0 | S = 0 | Stoichiometry = C12H23Cl2NPV | MND = 9
V        -0.14432717354346    3.20599082774324    4.48553647749999
Cl        0.14704377680162    1.12044505899067    3.97834272440807
Cl        0.19952939409706    3.22612000796863    6.70768662756908
P         2.18269685590425    3.02855601666994    4.76552412605827
N        -2.37012212101133    2.24211991912778    5.15485308155149
C        -0.65026325892542    5.42117765232769    4.56489903322884
C         0.47213699443429    5.21114133202078    3.75595904047969
C         0.09843303671314    4.33893542274796    2.69628735110376
C        -1.25042614289949    4.00714917239908    2.87885968128842
C        -1.71127616496710    4.66718261663540    4.05004279859380
C        -3.08225634314846    4.55711207188447    4.63994598556145
C        -3.08654726339852    3.41274714791848    5.66327421962385
C        -3.10411591063330    1.60461177492796    4.06776748857658
C        -2.23597155959817    1.25588723402615    6.22160993163910
C         3.11911433409650    4.29770181687019    5.70469168149546
C         3.16396436338969    2.91190190480478    3.21983957489821
C         2.77695609356054    1.52895359524135    5.63257036694497
H        -0.69240422974593    6.05887219002467    5.43686712234777
H         1.40203490095784    5.75855615503589    3.81580512438647
H         0.69339436081961    4.11194018702286    1.82196640023172
H        -1.85974344421551    3.48193698328112    2.15629227951390
H        -3.82024121989500    4.37808411139720    3.85293053992533
H        -3.35394562247550    5.48578146950692    5.14873717248283
H        -4.12080387681992    3.14796623912613    5.94310149013274
H        -2.55827690773922    3.75029635450309    6.56012667494375
H        -2.49217271395777    0.80665137368144    3.64696300071124
H        -4.04723808351268    1.17222454151542    4.43381813301670
H        -3.33853276600392    2.31508666057768    3.28102891467142
H        -3.22201379274566    0.90329759512526    6.55811768373894
H        -1.66315166005420    0.40459031442385    5.85296939397527
H        -1.70827633851230    1.68568957379510    7.07073913893541
H         2.72178797682227    4.34081174141730    6.71719230842121
H         3.02337979109024    5.27728766898784    5.24332201928021
H         4.17174852106177    4.01451066540243    5.73208241751617
H         3.12127339619140    3.85752151334584    2.68240984833579
H         4.20150728897048    2.66864142864842    3.44856785885532
H         2.72928793062263    2.12524134296298    2.60364618586137
H         2.27545609526829    1.44571884715339    6.59618196453342
H         2.54688379880558    0.64972591774225    5.03342644712161
H         3.85497768419577    1.60873355301866    5.78031769054012

