49
CSD_code = SAFDAG | q = 0 | S = 0 | Stoichiometry = C26H18Cl2N2Pd | MND = 4
Pd        5.85090130709849    4.08859404721908    0.00011750817452
Cl        4.03191257183955    4.52057034922458    1.32521341276397
N         6.15784313627248    6.03521521544146    0.00961912262239
C         5.41630732434896    6.79377272109884   -0.80953637628692
C         4.88257444456924    6.22394935724317   -1.99302455417985
H         5.16957427096137    5.20008504249792   -2.24762158074290
C         4.08260257092911    6.96360416004486   -2.81373346792221
H         3.68038453569720    6.52892844405617   -3.71656808110302
C         3.77825280144254    8.30533389042497   -2.50414093842490
H         3.13287103451646    8.86393770661587   -3.16508113954865
C         4.30633138263987    8.89552544311853   -1.39587408430539
H         4.09637497912169    9.92870183824808   -1.16125897116609
C         5.14806271993204    8.16811732180824   -0.51843538578507
C         5.70653553414474    8.71894681084146    0.63257239231774
H         5.49031960647795    9.74319064546222    0.90140826359982
C         6.53704702015810    7.94681611692301    1.44147023342680
C         7.15491313551728    8.44423053202353    2.61558092381668
H         6.98265622540640    9.47608151391923    2.88452166372366
C         7.94478394185890    7.64076150806052    3.38123733944940
H         8.40860194242480    8.02520778161049    4.27713537757776
C         8.18179507409329    6.30241443858039    3.00513506935171
H         8.83567069081123    5.69432593363973    3.61231348785797
C         7.60466567574500    5.78113935776134    1.88434440419491
H         7.82085129125391    4.76161047557930    1.55323614280326
C         6.74883670931011    6.57843568983571    1.08285537808813
Cl        7.66949990788825    3.65699277163988   -1.32522695776644
N         5.54403252235687    2.14199662625232   -0.00968108054368
C         6.28558741847227    1.38346902064461    0.80947843028251
C         6.81926981470573    1.95333861754500    1.99296765896011
H         6.53225451891012    2.97721129720487    2.24756606400979
C         7.61928844262629    1.21372611816184    2.81366714310322
H         8.02147312316561    1.64844512404911    3.71649449941269
C         7.92373702577085   -0.12797470222858    2.50405579811884
H         8.56919197541458   -0.68652485632627    3.16497137629741
C         7.39567876836889   -0.71819927213647    1.39579713796686
H         7.60571776944934   -1.75135101184380    1.16116510436333
C         6.55385612417312    0.00913826579373    0.51839234452317
C         5.99531418883189   -0.54173859890861   -0.63255711801827
H         6.21152805799490   -1.56598763059639   -0.90136137601084
C         5.16472886534246    0.23034101668995   -1.44142586805586
C         4.54678042400936   -0.26712972140061   -2.61546545125148
H         4.71900748439385   -1.29900158634015   -2.88434556073135
C         3.75689026272156    0.53630578499101   -3.38113171925427
H         3.29302838408016    0.15180676836595   -4.27698334848550
C         3.51989822007566    1.87467282245479   -3.00508867922345
H         2.86600827004878    2.48272382074872   -3.61228567705582
C         4.09709050183017    2.39598640265845   -1.88434297542890
H         3.88090030460939    3.41551587530801   -1.55327206961046
C         4.95296769818582    1.59874070599916   -1.08287381590593

