97
CSD_code = SAFGEM | q = 1 | S = 0 | Stoichiometry = C47H44IrN2OP2(1+) | MND = 6
Ir        8.35056541681463   17.16991619338376    7.11609026921304
P         6.10433192957790   17.71105941720370    7.57593577484692
P        10.52077669803561   16.43942984128998    6.55661616364544
O         7.85486570944878   15.06105628167764    7.67426881084562
N         7.82847045010701   17.12931815768469    5.08215983144648
N         8.23193193502375   19.37350106626009    5.22760495535380
C         7.86378795416873   18.33012489608473    4.46723010306782
C         7.50970239515356   18.43773289952347    3.10641590670553
C         7.14221474719869   17.30995627020289    2.41828744540048
C         7.13384819506757   16.07470019410347    3.06717487333336
C         7.48696830211577   16.04407202723004    4.39455934925690
C         8.75039417556892   19.15290978582379    6.57283268668916
C         8.36933254581432   20.70134536228691    4.67685355139843
C         8.83379130922301   17.09442077032522    9.08259978274323
C         8.60501791658711   15.90718895383627    9.69374148804976
C         8.06240860821049   14.85709173980756    8.88197178116941
C         7.75479229754754   13.52651266758853    9.49336984224989
C         5.62368395560596   18.97718136830079    8.79578507348904
C         4.27920567332716   19.33749088262433    8.88807920660620
C         3.87959846698566   20.29398721707279    9.80090006281401
C         4.81438580572291   20.90236692198463   10.62571534016157
C         6.15000064839250   20.55045871122912   10.53489288292338
C         6.55497592926505   19.59009638553498    9.62235300682039
C         5.16757713246412   16.24959066428794    8.12987785309423
C         5.11127096497554   15.12519107570661    7.30749428755669
C         4.45333338658706   13.98414829621641    7.72543437161972
C         3.86424124896056   13.94106395886906    8.97902942043822
C         3.95018703865073   15.03998255760428    9.81655277891790
C         4.60323959611103   16.18732442598234    9.40009305513676
C         5.19426963151886   18.35949316817234    6.12732601156844
C         5.32451556944339   19.72406504891794    5.87038742701979
C         4.72963570256098   20.28947429645577    4.75955180820161
C         4.00645024102041   19.49883954867480    3.88050090131342
C         3.86627599933456   18.14596462852019    4.13333150700929
C         4.45422597690364   17.57670969811710    5.25039789751398
C        10.93798704909882   14.80990298149137    7.25205224398860
C        10.19298600154639   13.69249962388347    6.87780585712834
C        10.46491040665653   12.45492209018313    7.42997082099837
C        11.47004856117846   12.32140492261474    8.37482791238206
C        12.19504683899528   13.43247836616145    8.77146995882819
C        11.93007107260744   14.67284830086316    8.21786716251869
C        11.99102495361742   17.42888705678547    6.98411926162498
C        11.93993898765495   18.40479913432160    7.97215730891492
C        13.07730003223696   19.12344576449674    8.29901621148326
C        14.27079009695930   18.87070124267966    7.64376001362114
C        14.32816212620777   17.89363290734809    6.66179022863513
C        13.19543214039486   17.17397542713265    6.33124299656877
C        10.77055214161982   16.27740782312498    4.75376552817697
C        10.89952440110202   15.07601964527601    4.06936367327491
C        11.01986184589509   15.07299648358511    2.68923917309925
C        11.01197108745356   16.26195042928452    1.98189149404469
C        10.90950542512830   17.46602878760243    2.66109417644659
C        10.79107064555965   17.47327837679266    4.03627037525978
H         7.53489647645333   19.39389322955218    2.61400382310876
H         6.86898380655582   17.37668589893683    1.37665878918308
H         6.86241816629179   15.17143763481912    2.54806791929615
H         7.50463471907288   15.11607535233018    4.94962687510366
H         8.27526192740195   19.89429549841993    7.22978933222296
H         9.82491516998467   19.39363194886428    6.56341322981254
H         8.55959291176386   21.39836126741635    5.48978926664002
H         9.20211051633775   20.75994546977718    3.96900424775001
H         7.45229821212522   21.00483626568815    4.17044060586288
H         9.26417932722321   17.86942736422776    9.71793863430318
H         8.81047325369566   15.71334559340760   10.73770746270685
H         7.05209280676779   13.65665357061488   10.31429026728519
H         7.32836015880709   12.85443207518528    8.75380488614011
H         8.66825514710610   13.09284192953717    9.89711361285495
H         3.55129129492226   18.86261131042955    8.24405941386267
H         2.83757597101334   20.56676683030306    9.87080529060170
H         4.49908007076589   21.64998304676416   11.33714222337688
H         6.87870174143254   21.02411361236841   11.17521561018818
H         7.59370795167481   19.30953198557099    9.54420421634323
H         5.60912651107455   15.13469573282602    6.34927446486555
H         4.40603077460661   13.12237189618225    7.07606956952602
H         3.35133404963641   13.04938435410988    9.30556658498632
H         3.50969425157724   15.00544898434931   10.80161545367013
H         4.67331109150266   17.03348410558797   10.06765027485714
H         5.88110186477743   20.34465803205581    6.55833314042109
H         4.82238214830570   21.35074336205314    4.58109623568324
H         3.54482475612141   19.93825033227798    3.00968466494694
H         3.29095120045922   17.52702410213232    3.46148484766603
H         4.31029404183887   16.52483974022472    5.44000564687777
H         9.38385701132521   13.79902238223799    6.16955698737975
H         9.88959571309352   11.59251524922848    7.12734181767010
H        11.68173326713239   11.35458415053323    8.80539779784247
H        12.97069256401552   13.33474907879817    9.51579714750157
H        12.49724310912140   15.53508629297941    8.53641348283362
H        11.00649064343489   18.59302741788436    8.48000849074574
H        13.03200061999355   19.88105603056631    9.06672160583049
H        15.15673394148153   19.43186575392165    7.89808860273425
H        15.25871640291035   17.69124505571407    6.15367947811427
H        13.24285531244565   16.40943446015909    5.56821989983786
H        10.92895330650945   14.13946660552718    4.60515971776822
H        11.12330982162925   14.13392865327097    2.16670397115091
H        11.09888806189085   16.25293590480456    0.90640936600868
H        10.92485821532859   18.39756700912308    2.11534116749956
H        10.73133432289683   18.41060068701647    4.57148397249313

