65
CSD_code = SAFJUG | q = 0 | S = 0 | Stoichiometry = C22H32CdN6S4 | MND = 6
Cd       -2.74920410345605    1.50774161323717    4.35700020151639
S        -0.45163591885329    1.27718795258680    3.07304038578363
S        -2.88984289442661   -0.21696492736362    2.36044298449722
C        -1.22305536075809    0.05595204325938    2.17428891817425
N        -0.52533915801515   -0.65016510431209    1.27626311410040
C        -1.05443119248652   -1.82621616384062    0.62356079105812
H        -0.75827503079092   -1.79319313218165   -0.42898434772301
H        -2.14139945923994   -1.82713291538099    0.70027929325455
C        -0.46662552790160   -3.07522623664932    1.28067340279308
H        -0.80383348229498   -3.11692287741143    2.33238611581976
H        -0.83271235770381   -3.96498379123247    0.76395040891435
N         0.98174609892013   -3.04146677499011    1.18012324528780
C         1.49990097610871   -1.85944503787668    1.84586658313763
H         2.58736223890148   -1.84984495219924    1.74570569360842
H         1.24687958822301   -1.85038195935649    2.92172443103091
C         0.91685634729618   -0.60683265055317    1.19151433529526
H         1.28391171610388    0.29156442087411    1.68724122614399
H         1.19399490429402   -0.58497514028867    0.13347455232460
C         1.58557995427482   -4.25352574295396    1.68794339295797
H         2.66379059748964   -4.19983418454427    1.54432760336202
H         1.20048688411843   -5.10388532666068    1.12702383796150
H         1.38084184658731   -4.41584011593123    2.75768520148923
N        -3.58347846458726    3.16447782321504    2.80813567351282
C        -2.72837627330482    3.77416419040064    1.99567133799452
H        -1.70308896658786    3.83307878290246    2.34199409535028
C        -3.10183982752185    4.30217035222103    0.77037523950179
H        -2.37052371908614    4.78455321114053    0.14069664634462
C        -4.42501790531652    4.18916240400045    0.37423026996753
H        -4.75123703932320    4.58203694760632   -0.57781436774737
C        -5.31968552981713    3.55916090904790    1.22431625104467
H        -6.35894624085913    3.44840565997038    0.95718497189690
C        -4.85201016300424    3.06104019350068    2.42978840653021
H        -5.51565738259613    2.55858603785093    3.12431241754906
S        -5.04869821104520    1.27704159147431    5.63782292631902
S        -2.61168926080646   -0.21703708515915    6.35431896516515
C        -4.27879514683006    0.05582487523664    6.53781515131719
N        -4.97813270067399   -0.65010904813766    7.43462853705457
C        -4.45019632234783   -1.82496163624964    8.09033801744570
H        -4.74602875847972   -1.78875925297726    9.14289858104282
H        -3.36324198702189   -1.82720933953033    8.01336233196551
C        -5.03938112274246   -3.07534293684697    7.43703440840630
H        -4.70199362583609   -3.12090859324674    6.38554340987469
H        -4.67445381556842   -3.96382080642382    7.95677459121802
N        -6.48772540026843   -3.03957442027527    7.53707923428730
C        -7.00408270030439   -1.85920603367196    6.86708227993178
H        -8.09162445108775   -1.84810284474146    6.96615359012836
H        -6.75000498777491   -1.85375668629292    5.79145042550978
C        -6.42033543081216   -0.60530855720487    7.51828057190950
H        -6.78623784518463    0.29204966962867    7.01982726247876
H        -6.69826136973123   -0.58031638117796    8.57605993575423
C        -7.09296823846264   -4.25271495190805    7.03357179253497
H        -8.17121396446385   -4.19677457338766    7.17606079008262
H        -6.70968248948546   -5.10139913008021    7.59825944993711
H        -6.88760052730313   -4.41966799473974    5.96466889871122
N        -1.91791933992095    3.16633463017351    5.90626348739983
C        -2.77609692333503    3.77046733716113    6.71966169124609
H        -3.80110882130714    3.82720516266051    6.37217065500476
C        -2.40611514076430    4.29536756969186    7.94733212917289
H        -3.14001693376154    4.77278479656810    8.57778391229218
C        -1.08308302356169    4.18551505455290    8.34480795829511
H        -0.75954341571897    4.57598841594291    9.29875118296635
C        -0.18504896361077    3.56194745757254    7.49352393991119
H         0.85427763119979    3.45411862881832    7.76158885684214
C        -0.64944096666733    3.06624396008946    6.28575883957571
H         0.01680909929106    2.56853561430369    5.59030388350276

