37
CSD_code = SAFMUH | q = 0 | S = 0 | Stoichiometry = C10H20BrCuN2S3 | MND = 3
Cu        0.67312654231356    9.48546658757981    2.97156473474914
Br        0.12952381151326    7.77650592702720    1.63188169324580
S         0.35949786490992    9.09340551992063    5.26070843212321
S         2.25344030947356   11.38565823965468    5.04178304958627
S         1.97383995382901   11.02085977313926    2.10229061767578
N         2.41670118236913    9.48245093740934    6.87272199004864
N         0.10948083746137   12.21394536332776    3.62171431977845
C         1.72439124118871    9.90067358709335    5.82304780632447
C         1.17560981575512   11.38707107470073    3.53859478692758
C         3.56456153519737   10.20859697783870    7.37979678728671
C         4.85273203380652    9.78708453106015    6.67844667309830
C         2.07425786856320    8.23615540775927    7.53438839380765
C         1.04474967279604    8.45359868149821    8.63772032692146
C        -0.50321454532286   12.58795738678263    4.88139000040137
C        -0.02686782623733   13.95974937428015    5.35201207386778
C        -0.59593680322906   12.59670245172158    2.41265205129739
C        -1.65777652412298   11.57964743215243    2.00379368351910
H         5.69303626378665   10.33349729003447    7.09638412728318
H         5.03039611327679    8.72210773810992    6.80664843245464
H         4.79513670545936   10.00303667123818    5.61492417001498
H        -0.51849291150985   14.21769488050746    6.28580725655394
H         1.04893571324387   13.95624415859751    5.51145191196379
H        -0.26188588618911   14.72174857355788    4.61289832842273
H         3.63508861698849   10.00979586771335    8.45129386344955
H         3.39824420257193   11.28050214329561    7.24058869367440
H        -0.27930039071424   11.83329527015258    5.63887945825925
H        -1.58637450128064   12.59849530500633    4.73725524308986
H         0.13869040060885   12.70868630973215    1.61036555467666
H        -1.05803534460738   13.56861476343608    2.59988238090299
H        -2.16999493226050   11.92241046597558    1.10952818013074
H        -1.20076016751052   10.61432979713696    1.78261778279673
H        -2.39191126146465   11.43866430071573    2.79454072723924
H         2.99312137905974    7.81452389337634    7.94563412163919
H         1.67038279148968    7.54597054342085    6.78996731638031
H         0.83567719876293    7.50911427265674    9.13071557193837
H         1.41144302362063    9.16134418074786    9.37780515309132
H         0.11978601640424    8.83429432164492    8.21360430537923

