68
CSD_code = SAFMOE | q = 0 | S = 0 | Stoichiometry = C25H38BrNP2Pd | MND = 4
Pd        2.40744118558594   -4.35469454365258    5.44101900456475
Br        2.26169100222627   -6.77263206663083    5.73614555373414
P         1.94130129181855   -3.91938764898555    7.61383168502952
P         3.00519738630637   -4.77457224135522    3.30013945334894
N         2.48361481414004    7.14330917895261    4.14255904909853
C         2.46816313638084   -2.40964854823633    5.15288191900011
C         1.28532402321439   -1.72060254384789    4.90254575288653
H         0.34136572791869   -2.25965876138775    4.83298266135146
C         3.65882881008350   -1.69540606801200    5.23096719045180
H         4.59261721387547   -2.21456894498368    5.43573109087488
C         1.28545742986393   -0.34823650784611    4.73696100018719
H         0.36338505014906    0.18394245535534    4.54602988309371
C         3.67445460771760   -0.32393863968056    5.06337253607958
H         4.60234173123729    0.22824873391212    5.12572921144601
C         2.48414745982792    0.36475497567391    4.81773801485064
C         2.48951688180127    1.76555843293791    4.66437973377479
C         2.49023888503943    2.96801819397053    4.54398704195001
C         2.48904992395853    4.36992625095356    4.40680753533212
C         1.30223657125949    5.06928127872848    4.16621863032468
H         0.36498257602908    4.54070193373610    4.07920771905930
C         3.67310427967074    5.10658433415394    4.51011191050822
H         4.61240575928628    4.60779696154271    4.69546483784678
C         1.36320076898221    6.44499380377016    4.04448105333266
H         0.46839493082435    7.02552202012079    3.85830706827677
C         3.60668688106487    6.48034357570265    4.36995725286813
H         4.49910137558967    7.08912096244894    4.44313930628212
C         2.46736490878823   -5.19550444514439    8.82867406785346
H         2.13977255206983   -4.91010856026734    9.83160535388597
H         1.96948301661177   -6.12967951023739    8.55260295292802
C         3.97844960220876   -5.38413062903811    8.75943531837906
H         4.27294771497496   -5.61193261100210    7.73157367825715
H         4.29232068468203   -6.21347311752238    9.38904552343656
H         4.50487844066584   -4.48587854521589    9.07974570900548
C         0.11155995821374   -3.83348738885680    7.83862054437070
H        -0.15659830535822   -4.11537145684001    8.86066146890699
H        -0.19193175664659   -2.79510791472291    7.66755792532551
C        -0.57140143516320   -4.75115013750642    6.82733558736615
H        -0.21877861331167   -4.51026362586187    5.81155753466913
H        -1.65296180109408   -4.62807997719805    6.85382013421793
H        -0.33762479023930   -5.79557820642708    7.03335859288264
C         2.52041332350843   -2.33019815330007    8.35853372755175
H         3.60381767783899   -2.27527784370248    8.20949843158467
H         2.07656757194728   -1.53375670350151    7.75235659634823
C         2.17779357216945   -2.11771165927533    9.82691835272241
H         1.11059360777208   -2.23581310811545   10.00119524679235
H         2.45893283827538   -1.10903007765218   10.12483478754990
H         2.71466643290333   -2.81524838641595   10.46494110285159
C         3.47143080990506   -3.46852873635110    2.07692217450889
H         4.21067463857523   -2.82486436406541    2.56394083174157
H         3.95512841990200   -3.96459217676049    1.22868051070548
C         2.30016513966764   -2.62364650311629    1.59608057382132
H         1.60434232182616   -3.22005257558724    1.00972632822212
H         2.65725619192698   -1.80781295918818    0.96974240465101
H         1.76707892565736   -2.19316841949487    2.44228207330304
C         4.58155368415122   -5.72793331032956    3.38530869688818
H         4.33426702053257   -6.74985185823580    3.68781943417064
H         5.06521171742155   -5.75937048843073    2.40459591131993
C         5.49152466167086   -5.09040395652576    4.43413328649748
H         5.84510165708122   -4.11416052437395    4.10276086531198
H         6.35620576046896   -5.72043634847355    4.63423689616322
H         4.93422912755541   -4.96009312920799    5.37898765075297
C         1.85766666818464   -5.86089573757929    2.35329511407984
H         2.04514704723604   -5.75125568853701    1.28137567318429
H         2.06234309001672   -6.89518685540654    2.64375614734686
C         0.41510647931574   -5.51062050888618    2.71021623007983
H         0.27154415693699   -5.62231738102098    3.78972419514041
H        -0.28246998513791   -6.17780561182069    2.20795403006161
H         0.17637756291363   -4.48407738617565    2.43359223955563

