70
CSD_code = SAFNAR | q = 0 | S = 0 | Stoichiometry = C25H40BrNP2Pd | MND = 4
Pd       13.95385082307161    6.89674593627708   10.09911965067787
Br       15.04479330728480    6.99268547197124    7.92338727465516
P        13.09762523171417    8.98633983990463    9.93419534946277
P        14.74453344270811    4.78887219793929   10.27755967251178
C        13.13717964586206    6.76870059564754   11.88363731830777
C        11.83697482478265    6.30648226918687   12.05686894532488
H        11.24496190737676    6.01608188645648   11.19127988966558
C        11.27541541435649    6.21694692374088   13.31524485649892
H        10.26512588538905    5.84814071355714   13.41622688800005
C        11.99927929210171    6.59152138598100   14.45155124897216
C        13.30793780595096    7.05140579511432   14.26891827903602
H        13.88897990208682    7.34608033826086   15.13343604781093
C        13.86573314901785    7.13879757774331   13.00809309630568
H        14.88865066099109    7.49823022775760   12.90450087981438
C        11.46557550423691    6.52583208896922   15.79577255443198
H        12.17906052543071    6.77940781294162   16.56988502657344
C        10.20922239219980    6.20878516911942   16.14449187758462
H         9.48041056155889    5.98119120010274   15.37766683043001
C         9.69019983908697    6.15573277794125   17.49582609706435
C         8.32124783363684    5.94381471827025   17.69813381497490
H         7.65949309620394    5.82162137853827   16.85289235563753
C         7.82329029877624    5.89648472262238   18.98624096913272
H         6.76830009399768    5.73609193962556   19.16973965431903
N         8.57393800792370    6.03770093726831   20.06708584806874
C         9.87051740892860    6.23344781365501   19.88603208316873
H        10.45383546514321    6.34068445943933   20.79201828200510
C        10.47507072593293    6.30030251088842   18.64493844205025
H        11.54026986561787    6.45497868486076   18.57661336527595
C        11.58638195210339    9.43721094753045   10.89648538795856
H        10.79322919131783    8.74193853761750   10.60359863473230
H        11.82292025759844    9.22467016029328   11.94430575345667
C        14.35293970381138   10.18257258224404   10.56634200095465
H        14.22355783065830   11.15672537431294   10.08636523340043
H        14.18417123997688   10.29263431953005   11.64309789037936
C        12.73785452082860    9.58513178587095    8.23307962753433
H        12.39463618581038   10.62222828582634    8.26646976919236
H        13.67630701363025    9.54688077270504    7.67207313461790
C        11.10719828797350   10.87520643628078   10.75041503734133
H        10.74855998116454   11.07390101939170    9.74354675084689
H        11.90328688787845   11.57914322823682   10.98217906645915
H        10.28437247966372   11.05735374665031   11.43959078091691
C        15.75593040081548    9.63614739031688   10.31268022949454
H        15.96909493912126    9.59513205564334    9.24459969708304
H        15.83355770246789    8.61482191279898   10.72127782955030
H        16.51117266209297   10.25702957216800   10.79202202969293
C        11.71254451271790    8.67008930085616    7.57298936617606
H        10.74497597563028    8.73709692905052    8.06875456249850
H        12.05861906586438    7.63393651836421    7.62506733220361
H        11.58398057331966    8.92809167965316    6.52438762284051
C        16.54445584667567    4.57265625302028    9.97847567537765
H        16.83364358748408    3.53017995036789   10.12865056861031
H        16.73457693864696    4.84032898869483    8.93514506136924
C        14.40750654153636    3.82539147516198   11.82095178944897
H        14.71352905272188    4.45201499516300   12.66461766298851
H        13.31750961788703    3.73492267360874   11.88074245217422
C        13.94208513243964    3.79323536187172    8.95159078164825
H        14.46065750287761    4.02087734257856    8.01514295697950
H        14.03619385451627    2.72284838439420    9.15204580454966
C        17.31083704259546    5.51628239095074   10.89928776477080
H        17.15930388468812    5.25403504988509   11.94612467865197
H        16.95386438449884    6.54032285152929   10.74294529567153
H        18.37715189270149    5.49265529734820   10.68526928874346
C        15.05831504124082    2.45304049195162   11.92631305058727
H        16.13515404741859    2.53673646010965   12.05168906980893
H        14.85912979196623    1.84677321247639   11.04497062277927
H        14.66186374795558    1.92668215709851   12.79285190830872
C        12.47609712264592    4.20978922423808    8.84532932389787
H        12.40777330835802    5.30773957517320    8.74393956129190
H        11.92123192555573    3.90908248279783    9.73443376177762
H        12.00405545975207    3.75865545245544    7.97449858542665

