65
CSD_code = SAFQUM | q = 0 | S = 0 | Stoichiometry = C22H36N2P2RuS2 | MND = 6
Ru        8.80762536190188   13.15663862021040    5.57342295902672
S        10.46156560328212   13.28350536292748    3.82962049499915
P        10.28627045802467   11.59777848670008    6.38562930018827
N         9.93998348754052   14.80227619826931    6.50237162445369
C        11.51164594904442   14.42583236728185    4.61259943984737
C        12.72236060278605   14.72655658895290    3.97885257143446
C        13.62572632626384   15.59782238955020    4.54117148857681
C        13.33501182796789   16.20027303907129    5.75630482120182
C        12.13474349721010   15.92583745511786    6.38490045546482
C        11.21429636512800   15.04008403334560    5.83904606353608
C         9.06799999832787   15.97018799201478    6.28504847333759
C        10.10170259809789   14.64042734414699    7.95307048305694
C        12.08095883793163   11.95874647281134    6.63065951508439
C         9.91648618953644   10.83328553610871    8.01577680388129
C        10.58304398407780   10.13324706150703    5.31416221921884
H        12.92640380962279   14.24598486164791    3.03378818452294
H        14.55713325913876   15.81021466981895    4.03755590104967
H        14.03436446582015   16.88566131841458    6.21068744384619
H        11.91960487717449   16.41722675436199    7.32283576952280
H         8.22537808119872   15.91416643545087    6.98412802328663
H         9.61738169037784   16.90308776817859    6.48073191009604
H         9.17154151588095   14.24662632196843    8.36875659690858
H        10.32371525673190   15.59187817987948    8.44732991727060
H        10.90414796986755   13.93962954726782    8.16699881724381
H        12.26437355336565   12.78660301004196    7.31031309782385
H        12.55479531954884   11.06229358432168    7.03166871316415
H        12.52666760723250   12.20024629412644    5.66689055271800
H         8.85746819882169   10.59181111640965    8.06943207250088
H        10.51758870098021    9.93897026531356    8.17751197814760
H        10.13111104197516   11.56464135133360    8.79381845873765
H        11.25127932067558    9.43448234263738    5.81798379163117
H        11.05562826823957   10.49864430548463    4.40195592064592
H         9.65889339128901    9.63072423553652    5.04643349729278
S         7.15506540761030   13.28411968617006    7.31890254696213
C         6.10383835473177   14.42585632159123    6.53667769637022
C         4.89454150389754   14.72780036897633    7.17255792634443
C         3.99045931916841   15.59888265814104    6.61111016927332
C         4.27907219501514   16.19986582729220    5.39474184976222
C         5.47819064869440   15.92457799620744    4.76425445175214
C         6.39943622137033   15.03915532162136    5.30930714427192
N         7.67300066150851   14.80097097322181    4.64461539101501
P         7.32831773134547   11.59779882965966    4.76023382998664
C         5.53392703129322   11.95914332770148    4.51344470893493
H         5.35112568929035   12.78578825614357    3.83219915414154
H         5.05990184859105   11.06221476680380    4.11376875419478
H         5.08791462546167   12.20260203198033    5.47657905872688
C         7.69937573762078   10.83150267121766    3.13120306255906
H         8.75825222365494   10.58915606256532    3.07890040197849
H         7.09777526273022    9.93751819324927    2.96945015327173
H         7.48624916779610   11.56246845479128    2.35239306492918
C         7.02970791093096   10.13451806117328    5.83297526153874
H         6.36161525443884    9.43558334210515    5.32922729806445
H         6.55619975838906   10.50129899300955    6.74413999098531
H         7.95310548707953    9.63163874134444    6.10264034292990
C         8.54510560226105   15.96910282629160    4.86035290823700
H         9.38769521699572   15.91186060044839    4.16133064274732
H         7.99592078998517   16.90183632790905    4.66323966463511
C         7.50979646767370   14.63907135919172    3.19404594591592
H         8.43946076585717   14.24506961361823    2.77753949147966
H         7.28756050176870   15.59050776193318    2.69983377957686
H         6.70710571630428   13.93844628633783    2.98070684676883
H         5.69181038448284   16.41506878500086    3.82549486498817
H         3.57897455713494   16.88488317928574    4.94093928649817
H         3.06019626575326   15.81231822274791    7.11641021813531
H         4.69220427610540   14.24828284205493    8.11852673331631

