79
CSD_code = SAFQIA | q = 0 | S = 0 | Stoichiometry = C36H36N3PRuS2 | MND = 6
Ru        1.16721025177798   21.76541357841192    3.96174125507303
S         1.41300886452399   24.12712834201705    4.43762035681851
S         0.64444965657862   19.43428403280214    3.49968519804705
P         3.04698408931758   21.57032466798244    2.66703865796296
N        -0.55536646612486   21.90579115768618    5.28628224569855
N        -0.27135408719162   22.15745949942968    2.38002207610147
N         2.29541038083918   21.53405682509068    5.44637219533095
C         3.02242746037303   21.60905096587742    6.34105131061211
C         3.97095146725645   21.67180471482827    7.41978929685368
C         0.17820236425877   24.24880185117905    5.64890303618536
C         0.02487016791725   25.47110747812156    6.31357413670161
C        -0.95400736741468   25.64514459366546    7.26336095560925
C        -1.81478506878206   24.59984374559458    7.56699859046209
C        -1.67508330685073   23.38837047189166    6.91617688002101
C        -0.68138919094123   23.18991138897948    5.96610746754949
C        -1.68117093474434   21.74183928507296    4.35450891406869
C        -0.56087582840666   20.81707514348231    6.27238530478821
C        -0.31863656494871   19.69476244221655    2.07963072782946
C        -0.74818595606818   18.57207988125406    1.36443316583178
C        -1.48370530424642   18.70616915362359    0.21025382676261
C        -1.81536174740536   19.97149796231835   -0.25078793247241
C        -1.41165860286900   21.08782449688741    0.45804002768978
C        -0.65739830353281   20.97360287686874    1.61832552365924
C        -1.45098666647661   22.62557253482882    3.13573535818206
C         0.15667088248964   23.23606529364567    1.47795404102132
C         2.98404816818047   21.42939508075392    0.84307667597700
C         2.37028477321057   20.27006029510553    0.37099595924222
C         2.21069022946177   20.05928619274404   -0.98396274677957
C         2.67778374738693   21.00082059344142   -1.88757855107421
C         3.31810855892798   22.13886330141287   -1.42731513993525
C         3.47191020940018   22.35833981473567   -0.06841914634066
C         4.16488939745084   20.14983031467885    2.95598473908574
C         5.29424835473945   20.01566730127903    2.14954594163588
C         6.16958502621905   18.96575866021254    2.34621290844817
C         5.92770540535269   18.03757580004955    3.34762519938052
C         4.80843535869471   18.16622900605899    4.15108135534133
C         3.92928888709162   19.21897640196538    3.95824183149066
C         4.18737106297841   22.95399211158086    2.99621045148214
C         5.29278119443552   22.79753260092158    3.82647126058839
C         6.07525693015826   23.88887585056061    4.15910371870438
C         5.76085036717897   25.14734287620015    3.67549187318879
C         4.64640934563204   25.31583335595859    2.87038219622599
C         3.85774824265620   24.22975572575100    2.54292236537746
H         4.64754067117437   20.81802408550980    7.36519495746763
H         3.45435602227573   21.65958485312982    8.37991475271848
H         4.54826259595279   22.59326504769235    7.33704556582947
H         0.70058770261091   26.27210495355719    6.05463794606950
H        -1.05426022056855   26.59464097916422    7.76820758031083
H        -2.59252879682819   24.72615971544336    8.30486845960343
H        -2.36014619726724   22.58872964593901    7.15969837227564
H        -2.63271518978875   22.01327610549485    4.83459157998521
H        -1.73850262551269   20.69099560425745    4.04787905622923
H         0.15687597768286   21.04331744387468    7.06098114201455
H        -1.54875438946770   20.67807777918076    6.72221512108865
H        -0.27200774321465   19.88407971098141    5.78367936263831
H        -0.47498163120012   17.59862817096771    1.74289665984812
H        -1.80021726821169   17.82864440643144   -0.33396647115222
H        -2.39167690769332   20.09178576652204   -1.15555402443467
H        -1.69694347167330   22.06124602142336    0.08792932961132
H        -1.26802084069751   23.65449007894982    3.46739569246092
H        -2.34423353400410   22.62114136859810    2.49413634123662
H         0.62055052891582   24.02596546311104    2.07203512663914
H         0.87978445433694   22.84605814251844    0.76222738064703
H        -0.68577316336619   23.67178827392894    0.93188812696416
H         2.02758218236403   19.53105623443476    1.08201787665991
H         1.72218224319626   19.16210948911491   -1.33458384436074
H         2.55217883847542   20.84310249904903   -2.94875057860835
H         3.70218653268899   22.86416144435047   -2.13049335023436
H         3.98262766302394   23.24535552337763    0.27635115453482
H         5.48285791458749   20.74213140710216    1.37034195387181
H         7.04278579098871   18.86791937151848    1.71721648237883
H         6.61158254724515   17.21465101680124    3.49747855390611
H         4.61437432040709   17.44173737880447    4.92882510142617
H         3.04687753788741   19.31177157700782    4.57624687233398
H         5.53961914067029   21.81904787833596    4.21511007374157
H         6.93369074203201   23.75637690771929    4.80298835249963
H         6.37406027367138   25.99738337516220    3.93731805778636
H         4.38282871946126   26.29939047684195    2.50962211843529
H         2.96475412568102   24.37098413418747    1.95053560786473

