75
CSD_code = SAFRAT | q = 0 | S = 0 | Stoichiometry = C35H33N2OPRuS2 | MND = 6
Ru        2.67348401991604    3.63024426900416   15.22924041518877
S         0.92146333927116    5.06821377892098   16.07983674761368
S         4.62323233158945    2.35088330363284   14.53777124766794
P         1.51601579738911    1.64569368468662   15.39537534613910
N         3.78683399542701    5.48943406592337   14.98665099953223
N         3.65214448982887    3.57218136581566   17.19915073447568
C         1.83178082007644    3.87502226429087   13.61613702409493
O         1.24259138045113    4.11171451066228   12.65829728068698
C         1.68475533211996    6.58931217203562   15.72588735877950
C         0.95627117228030    7.75790002842873   15.97134661028629
C         1.50740816579444    8.99712839205741   15.74353087327989
C         2.80882418572232    9.09704091452615   15.27281739670431
C         3.53928683524894    7.94937522221141   15.02979003535770
C         2.99302006204820    6.68893128245479   15.23989189046475
C         4.83568592470010    5.38080494001461   16.01358509486549
C         4.40126667862848    5.57169686099353   13.65254050364018
C         5.29128545447798    2.05854212910627   16.11767008292191
C         6.38988628875555    1.19919777591567   16.21095166436296
C         6.94531274214284    0.89154433200500   17.43107085151683
C         6.41697760868954    1.44729607679960   18.58643565901073
C         5.34336494819618    2.31379919643724   18.50315165412013
C         4.76074894570214    2.62672493363008   17.28157322991628
C         4.20016777181758    4.93873856690276   17.32495763170423
C         2.70539278458756    3.35672377064829   18.30345589323599
C         1.88505422443985    0.43666207933948   16.71919136305360
C         3.12284118916294   -0.19644706531191   16.61367698978212
C         3.54622547341131   -1.07877934764034   17.58755730575734
C         2.72967084199384   -1.35198275559634   18.67359665294972
C         1.48458008021356   -0.75355012311646   18.76726995964651
C         1.06007280461874    0.14050540603490   17.79835728414101
C         1.60943079941037    0.49198698893554   13.98376114544918
C         0.98666790626099   -0.75043378436059   14.10253141566702
C         1.01650499182475   -1.64585163050356   13.05168124155552
C         1.66756703915114   -1.31275510528555   11.87345590652493
C         2.28604591597753   -0.08091114285979   11.75039495098701
C         2.25721606342633    0.82095221595667   12.80095054908304
C        -0.27865550780961    1.94072834714494   15.49852153656363
C        -0.80312607234726    2.54035745417881   16.64214523394136
C        -2.14686426850751    2.85357973417552   16.71453297150525
C        -2.97899412652088    2.59304790649891   15.63828203825487
C        -2.45825466392647    2.02932334792107   14.48615993853644
C        -1.11485872506446    1.70722766559765   14.41130101338046
H        -0.05169648663029    7.65382987014898   16.34252050634186
H         0.92856007644262    9.88854881150479   15.93299920921604
H         3.25492240411793   10.06356724060863   15.09532243493024
H         4.55324087481800    8.04865639601617   14.67010462503145
H         5.57819231028324    4.64289607163063   15.68744289290484
H         5.34663199710528    6.34364262367398   16.15636957381265
H         3.63531316747954    5.82251119388267   12.91880266834472
H         4.84130750015216    4.60638615827752   13.39331671703547
H         5.18878349632129    6.32998540478279   13.61456878544830
H         6.78001987070437    0.77768040197189   15.29700360887689
H         7.78797052771380    0.21869096226148   17.48687357757004
H         6.84151184526430    1.21380630914204   19.55090332186429
H         4.96132215359252    2.74679978051391   19.41539506547890
H         3.38057141050649    5.62388928957323   17.57411181023462
H         4.94335034699130    4.98063502785027   18.13489061039507
H         1.79640984929032    3.92955103961070   18.10723288724887
H         3.11309521155044    3.69104995408425   19.26284990786484
H         2.46068648064885    2.29724524252863   18.37414304991686
H         3.74496356434446    0.00334450976538   15.75200867303959
H         4.51270661046995   -1.55244099412095   17.49952400583582
H         3.05852612307596   -2.03822007574281   19.43996519763735
H         0.83661718774341   -0.98151076097275   19.60146152455172
H         0.08279779171093    0.59325427680607   17.87808468793583
H         0.47567223361855   -1.00599365727871   15.02149979905562
H         0.53145473327585   -2.60626881658062   13.14972354646735
H         1.69183520612985   -2.01553867035269   11.05353647793832
H         2.79524387226257    0.18097901192356   10.83483601952821
H         2.75192210978785    1.77887663522634   12.70935911681230
H        -0.14924031166894    2.78385031014927   17.46785780065149
H        -2.54272161710924    3.31631371935782   17.60677277383381
H        -4.02802544560909    2.84471825435195   15.69188735485148
H        -3.09915240906586    1.84603741811948   13.63592656924233
H        -0.71431772650943    1.28172303257140   13.50222147782508

