93
CSD_code = SAFSOI | q = 0 | S = 0 | Stoichiometry = C35H51N2OPRuS2 | MND = 6
Ru       27.73339923520535    8.33017737440164    8.90632347524793
S        29.99215720411416    9.13642541157850    9.28546781638702
S        25.67800800485384    7.24122588810199    8.19966439451002
P        26.82440574950962    8.57978218712395   11.09154345542994
N        28.43465548507146    8.18027261750055    6.80088635395004
N        28.47072465320396    6.20537588007624    8.99739941533040
C        27.29168403005615   10.07951365903552    8.60266087491674
O        27.11348192874181   11.18695980542480    8.34586071562531
C        30.51821872305921    9.23796136543536    7.63421689579338
C        31.77993210468681    9.78606115388406    7.38497121122159
C        32.27373579289596    9.86599861898035    6.10372605055111
C        31.51797052323845    9.38800200765748    5.04302696287881
C        30.27083226441918    8.84166634919436    5.28026963843854
C        29.74945926379647    8.76757326575510    6.56618703194361
C        28.51297759033688    6.72829535275301    6.57584139974711
C        27.45999899152027    8.77399888515704    5.87213416607006
C        26.11061975923537    5.59405759310805    8.56137070700699
C        25.10998350633179    4.62374616797416    8.45690333448687
C        25.36724451668009    3.30607006297648    8.75689147638585
C        26.63876559268178    2.93087505576405    9.16313691221521
C        27.64125800301791    3.87956731677854    9.24921543688141
C        27.39824211470419    5.21685246154823    8.96014691964079
C        29.24414006944617    6.07997711689666    7.74254066618679
C        29.39575872936496    5.93843572748597   10.10705322597518
C        26.16419255301767    7.04829781017961   11.97589562353098
C        24.76454478780482    6.66291800141728   11.49214551037278
C        24.41954266668721    5.25061982802445   11.95468357873989
C        24.44728758861416    5.17998459857232   13.47770447521012
C        25.80732764091135    5.62856055919513   14.00114481860541
C        26.16168384835212    7.03310169871150   13.50714185938025
C        25.46736434977253    9.87380006277267   11.10908109780581
C        24.79971119302242   10.14992783758034   12.45781669295857
C        23.96550407851579   11.42752933486432   12.36336176282681
C        22.90759784403728   11.30272947586121   11.27214372720863
C        23.56354198627102   10.98270153944268    9.93286421577691
C        24.39156181075356    9.70407690137013   10.03508249882395
C        27.97185129711556    9.32088155662612   12.37300281721034
C        28.42523320583791   10.73434873289304   12.00593539482126
C        29.36224891866606   11.29479202963324   13.07480556962479
C        30.57247994622632   10.39134533235688   13.27393959859466
C        30.11150913201958    8.99031023305963   13.65512697378551
C        29.20389562426778    8.43683107689422   12.56160371901225
H        32.35083538546866   10.14455518336871    8.22780935782196
H        33.24731127135047   10.29757308124054    5.92632051272760
H        31.89638766444714    9.43929526922159    4.03358056991654
H        29.70166656901488    8.46889420800554    4.44103220576391
H        27.49783461785102    6.32489435391459    6.49340888049489
H        29.04693444176738    6.50546066411288    5.64089270549476
H        27.54219361980333    9.85990402338556    5.90758951587806
H        26.44934642794253    8.48342071568331    6.16458169649961
H        27.62782264888081    8.44099162469644    4.84376717390944
H        24.12841080263841    4.94275745337046    8.14153899946209
H        24.58095252534600    2.57040559006497    8.67973834156822
H        26.85564570430370    1.90166753366405    9.40588542027868
H        28.62665082359346    3.55559363710200    9.54875602406806
H        29.43383035074755    5.01928326495448    7.51916271145196
H        30.21184275524921    6.57859574490264    7.87685320743011
H        30.07375626005318    6.78562781213292   10.21651290605928
H        30.00244108560227    5.04412438072863    9.92971224032316
H        28.83735234662764    5.80883005278137   11.03220673438276
H        26.84743160422215    6.25480418470194   11.63811901438567
H        24.02951914638343    7.35188058825402   11.90949041493438
H        24.70627842611530    6.72289896444226   10.40669592561764
H        25.13839777133567    4.54123301549489   11.53705073035250
H        23.43026580113167    4.97432089361967   11.58434912739857
H        24.23778195017070    4.16190520584395   13.81234734467906
H        23.66992876281311    5.83141946542445   13.88438629227272
H        26.57230628358446    4.92459669012510   13.66269939630369
H        25.80720151488166    5.61847890736985   15.09364097490883
H        25.42580081161369    7.74270252893788   13.88676681985044
H        27.13414549179053    7.30136595581877   13.91719692000040
H        26.03188102599407   10.77241494211521   10.82308066767838
H        24.14166529966937    9.32312682163706   12.72762348374728
H        25.54134272448901   10.26958858121224   13.24816480017091
H        24.62111215208846   12.27158072580738   12.13675457819943
H        23.48779320589635   11.62514598639981   13.32600947489840
H        22.33828420152814   12.23157902357810   11.19881213691665
H        22.20992657888064   10.50330078380662   11.53320917612530
H        22.79941615996255   10.86218617935820    9.16281965705330
H        24.21046574731780   11.81084850637143    9.63519323749087
H        24.86087478856312    9.49753236377617    9.07047093130853
H        23.73142648551059    8.87092324220770   10.27128036613210
H        27.41653026594359    9.36637087046422   13.31710734466403
H        28.94057971400652   10.70380650882988   11.04312240185168
H        27.57239292221070   11.40753905383782   11.91634969529011
H        29.68766485651997   12.29413325163624   12.77983362199341
H        28.81910856198740   11.38592835708181   14.02003124371302
H        31.13839281179118   10.33935825515977   12.34229757876135
H        31.22403886247746   10.80090962376208   14.04868068748079
H        30.97360420100533    8.33257547857382   13.78422554092461
H        29.57142971943530    9.02574452646117   14.60555202807114
H        29.76187764313940    8.42780434139405   11.62594036134164
H        28.91718689950643    7.41129365005335   12.80193034949153

