103
CSD_code = SAFWIG | q = 0 | S = 0 | Stoichiometry = C52H44N2O2P2Ru | MND = 6
Ru       -1.48713698331794    2.89386644602391   15.51263491311266
P        -1.78557972301623    0.63095916713411   15.24611610276662
P        -0.94897197557530    5.09775841904181   15.87557285457614
O        -4.42331667749283    3.37478766791085   15.93720747527757
O        -0.73748580883019    2.46712009668606   17.57122925380194
N         0.40719197383843    2.58424109949964   15.17763421587030
N         0.90390279123484    2.65236026038029   14.01014410549303
C        -3.29205444179278    3.18987674283403   15.78530239837476
C        -1.38293805357253    3.16899672372031   13.47825039483120
C        -2.30371923331402    3.49412352409454   12.50119620404665
H        -3.34022631216436    3.66107760061435   12.76502992300996
C        -1.94438947411925    3.62105452740240   11.16042019208357
C        -2.98794341049921    3.98578827788678   10.14846751384129
H        -3.79236951877362    3.25079989047952   10.15506021657860
H        -2.56540304007901    4.03139234114168    9.14765790164923
H        -3.42078910645302    4.95659872833852   10.38902560556393
C        -0.62456251692123    3.41031365065495   10.78553839209446
H        -0.34268676946085    3.50722657932960    9.74552700037766
C         0.34358372535977    3.07990837443991   11.71800225750393
C         1.76426934019850    2.83001074562953   11.31233688417671
H         2.03495427379400    3.44305773518382   10.45524138427242
H         1.89310076820058    1.78320860430445   11.03415692725660
H         2.43304051696048    3.04036986528524   12.14205982881057
C        -0.04247400968646    2.96497199897146   13.06077177351684
C         1.20634139131938    2.28646609144007   16.24562279947729
C         2.57935397950188    2.03934999945747   16.15388540453943
H         3.03930669798593    2.08716547165533   15.17750340813186
C         3.30991902149555    1.74420772829995   17.27921630756956
C         4.78329131503279    1.47333915436051   17.21049551197312
H         5.13886838727851    1.54113480201767   16.18548233053006
H         5.00703429040727    0.47683788869531   17.59131546937525
H         5.33339273499034    2.19222475577692   17.81778281769092
C         2.64719846708848    1.69773323549576   18.51618561318129
H         3.22339148297378    1.46505417494610   19.40202362832156
C         1.30388602648459    1.93544384575479   18.63554215183276
H         0.81136030798387    1.89458271246944   19.59606935714391
C         0.52216900911810    2.24108352796951   17.49684139409315
C        -2.56450948129716    0.02239786416493   13.71321154598182
C        -3.69114043571412    0.72175451635976   13.29075677063089
H        -4.02076865716711    1.57355313054063   13.87073516557275
C        -4.37312019929168    0.33072335189415   12.15510159050593
H        -5.24570176054455    0.87948253880897   11.83270616774758
C        -3.93621717428560   -0.76701413076676   11.43091370497664
H        -4.46057123737179   -1.07036135272451   10.53667832059156
C        -2.82885460991980   -1.47928465288050   11.85823832805219
H        -2.49408342842004   -2.34292945187963   11.30205763939163
C        -2.14489117139664   -1.09308771263756   12.99829178883903
H        -1.28708452461443   -1.66332136304969   13.32672687167675
C        -0.22625562182548   -0.29685301955145   15.36058238607187
C         0.19020197552355   -0.82185783380193   16.58007134699173
H        -0.47627680394133   -0.79238665929761   17.43161691062984
C         1.45571489022357   -1.36618636579478   16.70326306259139
H         1.77579571889960   -1.76690204179764   17.65381870561277
C         2.31427915165105   -1.38279396934686   15.61736225395966
H         3.30548507537819   -1.79935414106229   15.71929761472904
C         1.90750076907684   -0.85433579084097   14.40254638386408
H         2.58039542179206   -0.85712329700998   13.55742990448416
C         0.64610191896656   -0.30598257997776   14.27206913253419
H         0.33549543284359    0.13340390114178   13.33240198202672
C        -2.82463363706641   -0.21610724308630   16.48302669411950
C        -3.20650039305986    0.45703016424935   17.63701455180977
H        -2.86598748736198    1.47223265255881   17.79417932163233
C        -3.99239012147799   -0.17841248125766   18.58247965127751
H        -4.28674749431891    0.34732284851417   19.47891055107182
C        -4.40049021609043   -1.48571418118669   18.37932741212346
H        -5.01652822343335   -1.98122308960816   19.11545477282503
C        -4.01639926947793   -2.16223097817468   17.23169343635924
H        -4.33215278770766   -3.18354535454402   17.07517465293571
C        -3.23121593469110   -1.53296914504151   16.28449065275452
H        -2.93408642440277   -2.05884425453262   15.38769181916464
C         0.83556167587024    5.34645069440682   16.11714365808732
C         1.37791755413224    5.33575251516321   17.39861197213220
H         0.72099912401891    5.31174266464140   18.25776180204658
C         2.75035590459626    5.34252031510139   17.56953645054648
H         3.16605039919523    5.32713895517873   18.56625039297439
C         3.58797761164211    5.35186199738788   16.46723430741874
H         4.65939785214858    5.34713861090714   16.60319253496472
C         3.05323798033762    5.35416911282624   15.18873958759820
H         3.70635858611950    5.35231007057865   14.32811062863404
C         1.68322709016862    5.34305424542611   15.00934000103995
H         1.26232485396115    5.31720691680302   14.01185391328863
C        -1.65091644694579    5.89100046737251   17.36057346323339
C        -2.33058078966377    5.12463458280081   18.29889191251370
H        -2.41545265667607    4.05626051044246   18.14837040102744
C        -2.86934666621942    5.72426575001446   19.42407726456218
H        -3.39687694215792    5.12600502736542   20.15244671503174
C        -2.73327614664317    7.08874643745934   19.61527109902126
H        -3.15724740074178    7.55766733584188   20.49122300849151
C        -2.05030541204135    7.85559004340055   18.68361183265677
H        -1.94125752152285    8.91983153566259   18.83485867446976
C        -1.50980993503241    7.26221441402429   17.55893755770950
H        -0.97936428951739    7.85904635490532   16.82977132202542
C        -1.41482488580506    6.33667833666745   14.62014200002503
C        -0.60067316463689    7.37898576842367   14.19349439687522
H         0.39764336010513    7.49295152001703   14.59257410347026
C        -1.06853582866532    8.27939935247939   13.25174023730258
H        -0.42863755658095    9.08412672402333   12.91918676659960
C        -2.34836801199208    8.15501457682007   12.73924221003802
H        -2.70456604741544    8.85799907808817   12.00055331325424
C        -3.17270751683080    7.13256757644725   13.18113916619962
H        -4.17696723198693    7.04110661698647   12.79391265328375
C        -2.70811489726042    6.22962220432284   14.11735714338424
H        -3.33999534962532    5.42746735431518   14.47527850394840

