103
CSD_code = SAFWEC | q = 0 | S = 0 | Stoichiometry = C52H44N2O2P2Ru | MND = 6
Ru       -0.15879100103210    0.69833392995758    4.28070688686125
P         0.03590948746478   -1.56615073738524    4.64670119674946
P        -0.57777955036379    2.88873265157107    3.73627578040117
O         2.81979083760141    0.97044954985047    3.98763035137900
O        -0.87373931600884    0.25535295494594    2.21013184044668
N        -2.07092585672971    0.46988962396050    4.57213913459639
N        -2.59103031641020    0.55762849490853    5.72838181667536
C         1.67097077500486    0.87946262207153    4.07852918256664
C        -0.31418776326235    1.06901599602841    6.29701575600732
C         0.58578186886590    1.43290892435751    7.28559576841289
H         1.62526762866574    1.60488706197681    7.03836684583411
C         0.18378619917225    1.58273599627093    8.60475535755819
H         0.90752792859715    1.87055905787551    9.35464720783901
C        -1.13245591342638    1.35636062012138    8.97349147685085
H        -1.42775442763394    1.45881893915166   10.00870138117083
C        -2.07695070045846    0.99661904301510    8.02882724878789
C        -3.51111453244468    0.75678061755659    8.40459005752334
H        -3.58168258952353    0.60098025015205    9.48368169223297
H        -3.87213221914449   -0.14009468186383    7.89720722801879
C        -4.39387329325295    1.93663445135744    7.99769264111140
H        -5.42001329251123    1.77509039522734    8.32221932300399
H        -4.38027999115566    2.04157004350261    6.91656231064821
H        -4.02791801465834    2.85857216567317    8.44608627293234
C        -1.66139771061222    0.87614810410147    6.69345827465568
C        -2.85231493270963    0.16491171724768    3.49283289219801
C        -4.23409374803483   -0.03835588237467    3.55777770115763
H        -4.71573881019047    0.05354351211952    4.52050692276934
C        -4.94619773280733   -0.34445606310232    2.42362620830817
C        -6.42824372180658   -0.56900994702945    2.46407902683738
H        -6.80586704960678   -0.45795763993412    3.47733102698885
H        -6.67264754899090   -1.57020579386159    2.10924335707215
H        -6.94156147504279    0.14591547313072    1.82110692257301
C        -4.25576543971340   -0.44729165426034    1.20536885585414
H        -4.81720952479356   -0.68950530531073    0.31269913294691
C        -2.90360790686029   -0.25173663877058    1.11212055456751
H        -2.39025862842189   -0.33414784279596    0.16525640070448
C        -2.14068194703011    0.06537809113768    2.26019418318855
C        -1.54427532868951   -2.44763939357145    4.45913463830766
C        -2.47628428005901   -2.41444102514724    5.49640111042508
H        -2.20736397975354   -1.96622133552053    6.44468069899367
C        -3.74182176516236   -2.93481974181416    5.30440775359778
H        -4.46070520040189   -2.90754855108012    6.11042760671166
C        -4.09316867577834   -3.47683432773946    4.07836993268090
H        -5.08708836907650   -3.87222928369587    3.92890945122090
C        -3.17478694021334   -3.50233709802915    3.04278094088898
H        -3.45036243210162   -3.91463574379860    2.08311865093778
C        -1.90464068752378   -2.98707044035892    3.22802685516412
H        -1.18994881962836   -2.99330105382408    2.41603769702465
C         0.69202578523730   -2.15356163323106    6.24357874410102
C         0.20123223064132   -3.24850986749692    6.94577092926273
H        -0.64074429076512   -3.81050651953934    6.56572941384347
C         0.79537846349321   -3.62570318747303    8.13792850634508
H         0.40641012015865   -4.47427108542640    8.68263890431020
C         1.88339356198681   -2.92517181590511    8.63022736455267
H         2.33789356866302   -3.22164973026464    9.56408953413797
C         2.39150120461132   -1.84904132417853    7.92041074051361
H         3.24693971687040   -1.30737164632017    8.29607903427931
C         1.79956773612266   -1.46707442215498    6.73215166278285
H         2.18577217767007   -0.63130043560052    6.16378334637624
C         1.11843055553216   -2.47806456406950    3.49488390965873
C         1.56188910855456   -3.76405461021375    3.79073569184348
H         1.27416304931956   -4.23376749633774    4.72099145679975
C         2.37503425909971   -4.43574564497033    2.89704942744027
H         2.71923256779668   -5.43309120569260    3.13012899614183
C         2.74980055706309   -3.83361344034096    1.70609054270284
H         3.38779136938239   -4.36193614153962    1.01268610015939
C         2.30402027575313   -2.55758725439739    1.40512680924121
H         2.59097213802336   -2.08915056419898    0.47500565864992
C         1.49085565806286   -1.87987078346664    2.29618208181108
H         1.12180423081946   -0.88974203690773    2.06138741260645
C         0.23045409089478    3.54152550578984    2.23689120800834
C         0.97426075196947    2.70076992092015    1.41923629561886
H         1.04820476966569    1.65026707035053    1.66774033837416
C         1.59287247351658    3.20378594527251    0.28760382680628
H         2.17059475071067    2.54707198653188   -0.34652991383664
C         1.47300919887047    4.54606454930189   -0.02982830037818
H         1.95896910704823    4.93970291587121   -0.91064881383800
C         0.72693850401744    5.38751963152587    0.78173680991346
H         0.63030757832674    6.43440192298953    0.53183988158254
C         0.10684372863765    4.89044514778816    1.91186100241572
H        -0.47439389944708    5.54522946081077    2.54702098679748
C        -0.11202859368104    4.20348999463888    4.91190408829843
C         1.16058827594262    4.08792357561545    5.46327042674228
H         1.76802002297118    3.23388171614525    5.19233837127324
C         1.63570014211886    5.04681173356654    6.33625673194804
H         2.62335818899038    4.94892103448414    6.76208821783930
C         0.84160659311628    6.13374558636652    6.66565077736347
H         1.20604150686409    6.88240052003183    7.35358884503396
C        -0.41845584524232    6.26266321321259    6.10728000558793
H        -1.03472038373893    7.11524697079787    6.35428163150938
C        -0.89642798502918    5.30592304547499    5.22809369607571
H        -1.87907119140969    5.42305428008195    4.79258039984457
C        -2.33371170294487    3.19714418426010    3.38241074402035
C        -2.81465123955341    3.14259298274583    2.07803341768723
H        -2.12083560835437    3.03655878103300    1.25512997981778
C        -4.17533766541035    3.21055189786169    1.83927934765484
H        -4.54398673252653    3.16016646652293    0.82534076755493
C        -5.06172609441438    3.32929095039045    2.89602313371084
H        -6.12409950810967    3.37586292312430    2.70750825795254
C        -4.58835434426577    3.37753462160091    4.19771107200708
H        -5.28158634092681    3.46494885476702    5.02205957906105
C        -3.23093954257812    3.30097688692648    4.44472134539665
H        -2.85488034236167    3.30912102704031    5.46073602119841

