88
CSD_code = SAFYOQ | q = 0 | S = 0 | Stoichiometry = C47H29ClF5NO2P2Pt | MND = 4
Pt        8.93891665721662    1.77177583073562   10.56523438677059
Cl       10.52959258308655    2.91764702601623   11.75279343649652
P         9.73979228419011   -0.24515856366075   11.24170665229889
P         7.48406969210240    0.52687790147130    9.35982287799115
C        12.19926296273191   -4.20256919173477   10.23887054882694
H        12.14263927074700   -5.05226572653239    9.57539238133454
C        11.58780033150446   -3.02792059408244    9.91056491837702
H        11.02763656741464   -2.91172039542681    8.99522332094605
C        11.67825396490368   -1.92921305868359   10.77771034247055
C        12.39271632933271   -1.98273442903734   11.95432813685483
C        12.88178353586589   -4.33788858147063   11.46586361765970
C        13.45554891040910   -5.56649093110853   11.85449921751525
H        13.39029007050677   -6.40267294796409   11.17352656820672
C        14.06800357083030   -5.70188811761257   13.06824120323263
H        14.50209976389547   -6.64646930897055   13.36006390881112
C        14.12137191175166   -4.61403793457200   13.95199010825683
H        14.58438168161317   -4.73821800602747   14.91946607499106
C        13.58871613363474   -3.40508639037781   13.60006512945719
H        13.62403603444169   -2.57779268346639   14.29182921231326
C        12.97394596975127   -3.22376988270754   12.34242183675723
C        12.47704852638141   -0.78485934589798   12.81547764549551
C        11.31255382908817   -0.17084310938308   13.21785042843299
C        11.30218086827778    0.92251109349047   14.09145273016453
H        10.35388993236513    1.35338357728612   14.36885560553994
C        12.48691881911957    1.41810522347748   14.55494601222113
H        12.49686072230285    2.25950487396302   15.23040345533942
C        13.71497811457142    0.87260901035227   14.12547149910841
C        14.94733506886927    1.41486085349297   14.54705058353535
H        14.93396383492080    2.25145342699776   15.23015229727299
C        16.13093294759428    0.90628461861392   14.09153709705875
H        17.06974553334992    1.32913469980457   14.41703483000678
C        16.13317710030931   -0.16055630104085   13.18070333941847
H        17.07373112040366   -0.53721325019222   12.80668925681667
C        14.95761036725560   -0.71792884974804   12.76087606171610
H        14.96694230645446   -1.52921731150025   12.04861208034401
C        13.71970165706308   -0.23469149148299   13.23556494415080
C         8.38191797851568   -2.72676457190555   11.35825953173955
C         9.16434958917527   -3.51707280334592   12.19190144264380
H        10.04646337840314   -3.13222169012444   12.67466458982595
C         8.77308502864647   -4.82326751860117   12.39470775497008
H         9.37092589528405   -5.45565440435475   13.03361563686929
C         7.62422765509755   -5.34662903661261   11.79734875073654
H         7.35554312201540   -6.37530910764321   11.98509807901618
C         6.83394455740711   -4.56949640990620   10.98284774743234
H         5.94204247363428   -4.96731834787177   10.52344499015909
C         7.21246981942998   -3.24602299531777   10.75542323795915
C         6.63699108683512   -2.20328350398458    9.96305369184428
C         5.39047354160490   -2.33227544545135    9.16093518226158
H         5.11115038065247   -1.37957858967234    8.71861127540705
H         4.57380072928289   -2.67624391740286    9.79474862931228
H         5.52919118435370   -3.06770690065591    8.36837938952452
C         7.45293333786598   -1.11226460907314   10.10685856343127
C         8.18084762687040    0.24569231874969    7.70734935966434
C         9.46610814281295    0.72857569176612    7.47557155707967
H         9.98065727722743    1.28187018916419    8.26134289262061
C        10.06974005099412    0.52146809476390    6.24886466652755
H        11.06259394339602    0.90302440823923    6.06701189402327
C         9.39423294736160   -0.16821624463994    5.25464393291589
H         9.86324766145539   -0.32794525195596    4.29529046431272
C         8.11414721381654   -0.64932265415854    5.48418474674799
H         7.58968717288783   -1.18177026532836    4.70454055242587
C         7.50375242983733   -0.44691129774196    6.70840061803827
H         6.50366169529700   -0.81283469241276    6.88871780058948
C         5.79569838321852    1.12591450986154    9.15023587607990
C         5.51325925446977    1.98506438934900    8.09088337595425
H         6.25335712020903    2.14083323371962    7.31727222369634
C         4.29563117961897    2.63849706724998    8.04237614799754
H         4.07749698379992    3.30737893038012    7.22334805140833
C         3.36654912159959    2.45097539413369    9.05373716516175
H         2.42501120449510    2.97762971832748    9.02295261762668
C         3.64963372359525    1.60276009668225   10.11326762898739
H         2.92916689851752    1.47005750222095   10.90595873576427
C         4.86418571354238    0.94587723582845   10.16991456538615
H         5.10718120404613    0.30282329317457   11.00433850537950
C         8.01621269498766    3.47989627613944   10.02248899436012
C         8.32159215412479    4.31016260771604    8.95243700570325
C         7.53823823104886    5.40451382363417    8.60421629880850
C         6.39330894261518    5.68918553887565    9.33861480557132
C         6.04897839139249    4.87948678560718   10.41536611763068
C         6.86516261712473    3.80506161301952   10.73206184894459
N         8.52466591783124   -1.41434382656754   10.95596601412469
O        11.01355657079746   -0.76460870395472   10.40077619126355
O        10.08860304018116   -0.66843889612259   12.74735973942105
F         9.39864310648835    4.02241617368051    8.19554012544428
F         7.85747600861322    6.16947821882817    7.54914033259459
F         5.61104968746313    6.72319696691552    8.99589730613989
F         4.92694504981192    5.12814735652087   11.10858753006993
F         6.51398190596003    2.99227251720466   11.75625407220459

