90
CSD_code = SAFYEG | q = 0 | S = 0 | Stoichiometry = C35H49ClMoOP2Si | MND = 5
Mo        2.50890448693825    7.40449079062828    8.80388164064113
Cl        1.03310914133169    6.47768673576054   10.47268460742977
P         2.90176536593327    9.36240403814412   10.32952725234828
P         2.05220295796411    5.39363818089956    7.38129313233996
Si        2.38464272470800    9.78631719092428    5.85733419561294
O         5.13625668389457    8.09384150232487    7.18512914742124
C         5.25498346262018    7.34905305256632   10.46431468447066
C         4.02957181501110    6.64410749941470   10.57091898569546
H         3.45728065983600    6.77218473949310   11.48869085222428
C         3.79388124190373    5.54044675836185    9.74966558467223
H         3.03722016293241    4.80762082133176   10.02620741744659
C         4.78153490868017    5.13659277430870    8.81625340403726
C         5.98122768625677    5.80567574667198    8.75912389118631
H         6.73453719370236    5.50989298426870    8.04470717448449
C         6.21872797322532    6.91441712710227    9.58543214723387
H         7.15047076120117    7.45138775979653    9.49175432282067
C         5.39364152479904    8.50770823788295   11.34964549434847
C         4.30265289201802    9.37626401389343   11.52880631750520
C         4.40494531409470   10.38095654142807   12.48802440663118
H         3.57258503555543   11.04306847819221   12.67129376366536
C         5.55686937510570   10.54189271876452   13.23716964345256
H         5.60543293580553   11.31857989411422   13.98650642687886
C         6.64848461185640    9.71851176960233   13.01592448392426
H         7.55717555825683    9.85693543157200   13.58281196294431
C         6.56068747468318    8.70429102216754   12.08240644195599
H         7.39250401282888    8.03263422040268   11.92795068476866
C         4.42569184126435    3.98827789338431    7.97921438034851
C         3.12833308957109    3.89884224992841    7.44496155963490
C         2.76279195228238    2.73166275594661    6.77887336577843
H         1.76320846876793    2.62044660277084    6.38730184180569
C         3.65610430602464    1.68674453013996    6.62315143185256
H         3.34382697683492    0.78490206648639    6.11687161024720
C         4.95010289014813    1.80334226514060    7.10328358623093
H         5.65600669358879    0.99816280386052    6.96314625243315
C         5.32647524514770    2.94549432836247    7.78294873415341
H         6.32163724673710    3.03160036547224    8.19424021162918
C         3.38213714134578   10.90406889811715    9.36127986090639
H         2.83948219957843   10.78138650042335    8.41707514674903
C         4.88012135854451   10.86572634826382    9.06180980810425
H         5.46028157034223   11.08564384182731    9.95627016697521
H         5.12612577537118   11.61203738529051    8.30891853687025
H         5.18458965665923    9.89261916730151    8.68329413095766
C         3.01989141062556   12.26339847415255    9.95286970098497
H         1.94611880875810   12.39179111214316   10.06445321052330
H         3.37439326250521   13.03876204046886    9.27418426614860
H         3.50608070973034   12.42431751256925   10.91223191834266
C         1.46615492341288    9.95054604772700   11.36168755550301
H         1.66577851759178   10.97585282584655   11.69080023003292
C         1.25229432377838    9.08026901187530   12.59688140054938
H         1.00129527111805    8.06156534031128   12.31347849822366
H         0.42812453901995    9.47643493485517   13.18905135448862
H         2.14402388589819    9.05678343202092   13.22231580854428
C         0.24250345376909    9.94927794635890   10.44961903112789
H         0.41229471537346   10.57288152859087    9.57166277421909
H        -0.63326884252154   10.32154805224344   10.97940677571116
H         0.03175945054012    8.93387715770979   10.10923387807074
C         2.28015125809717    5.80156365913652    5.56142999653655
H         1.95944776695724    6.84780076818900    5.51022584462726
C         3.76608831196977    5.73541169415140    5.21036967376079
H         4.37552444461801    6.24382203590347    5.95401443091950
H         3.94097080259001    6.21397120874095    4.24800204550356
H         4.10115070358651    4.70198534940296    5.13874521614181
C         1.48573276310021    4.99716898599566    4.53629155279777
H         1.73949499406949    3.94028029967858    4.57430925340803
H         1.74439834229472    5.35979064410316    3.54195757220835
H         0.41224640511526    5.11730588074859    4.65891834231833
C         0.33285876375146    4.67765635055181    7.42669689636362
H         0.18382312422805    4.06479484178813    6.53128382758317
C         0.10733863457656    3.80066653025188    8.65485859492982
H         0.82608570515427    2.98270290487960    8.69175555948346
H        -0.89541706761052    3.37573657286297    8.62635940043969
H         0.19853359743777    4.38305633312560    9.56788109675052
C        -0.63221352039453    5.85970688291915    7.38852922860582
H        -0.49768817532419    6.48011540548907    8.27635180842807
H        -1.66463452602438    5.51361555257266    7.36614289240584
H        -0.45208387469340    6.48066520678985    6.51003797601964
C         3.98801791201586    8.03790636516908    7.55090029883321
C         2.72053032300994    8.53875179905116    7.22411847824109
C         1.97491317051621    9.01687252359102    4.15027460783587
H         1.83613021606186    9.81194347389691    3.42290143572799
H         1.05874848897739    8.43442744900601    4.16804073732453
H         2.77585131945606    8.38068874340212    3.78817199296211
C         0.83471359257963   10.79652249341532    6.36807326430582
H         0.36583541151415   11.24155759792897    5.49671577155220
H         1.07393836066682   11.60451846168833    7.05260337418543
H         0.09764758117668   10.16132633419510    6.85196746715770
C         3.88361272446479   10.94153817880322    5.58040012178498
H         4.80718363107310   10.41161816566901    5.79249492878821
H         3.84922968145496   11.81709450385284    6.22147128861097
H         3.93138233052763   11.29005335326436    4.55302993007875

