27
CSD_code = SAFZUU | q = 0 | S = 0 | Stoichiometry = C12H12MoO2 | MND = 10
Mo        1.36539013837912    1.83909580001775    3.25941222171030
O        -0.70978932367924    2.16931387370554    5.49403512657554
O         2.42003753415971    4.13648609989430    5.00447617189832
C         0.06537930221340    2.04744429549469    4.65436130535078
C         2.02730819883864    3.28422369671539    4.34199761276547
C         1.94114432737687    2.81917664995915    1.23029744529174
C         0.54452272525021    2.98452985051262    1.46194983506719
C        -0.04947646391461    1.69230360296011    1.42231061955312
C         0.97317343397118    0.75224956441620    1.22234949277484
C         2.20126784314550    1.44847996404454    1.10124123004494
C         1.22196879078284   -0.15996519888616    4.40590392375894
C         2.53347712280840    0.09059735132920    3.94453904265715
C         3.27444726940611    1.15579912181411    4.51562428820884
C         3.27012101595086    1.45310041503844    5.94045313918720
C         4.16760977918725    2.24019105523810    6.52601699553491
H         2.64607609666712    3.62148883354752    1.05464901934631
H         0.00640917731309    3.92458456867902    1.40267063426475
H        -1.11187851793324    1.48933656717860    1.41881946577774
H         0.83020403156135   -0.30460831637864    1.03051497423691
H         3.14638811697370    1.00961847628733    0.80569073236794
H         0.68873399624496   -0.97687929486706    3.92462004202827
H         1.01002742254160   -0.10523340446954    5.46757101634320
H         2.97374216590595   -0.52048365836111    3.15468438979791
H         4.22837714293067    1.37989503416089    4.03563781994742
H         2.48610507097725    1.00069713496893    6.53740564398996
H         4.14200882230578    2.44218334304686    7.58189834332855
H         4.95292478063792    2.71847457395271    5.96416946819293

