41
CSD_code = SAGBUY | q = 0 | S = 0 | Stoichiometry = C13H18N2NiS7 | MND = 4
Ni        1.47169450714951    1.66818390490097    9.60687950772867
S         1.37872527610994   -0.46691852953752    9.26140367365683
S        -0.41284119887894    1.66865936404080   10.67053307822552
S        -0.67375521958045   -2.56146905911504   10.03248505645412
S        -2.36354620279130   -0.55011704567832   11.34969611324540
S        -3.22241650688302   -3.39307046169035   11.31177386113414
S         1.61695430125377    3.79759272483926    9.96591285064029
S         3.32315292390282    1.72349016029571    8.49029179936971
C        -0.09439859943679   -0.91212345989367   10.01186917331622
C        -0.87980907547944    0.02227626515660   10.62354746473491
C        -2.14595042517015   -2.23346691907768   10.92125955723900
C         3.09533444324507    4.28965065652701    9.27905002439003
C         3.83291294176123    3.34605173338367    8.50891611870739
C         4.85430668404752    5.88556629706742    8.91901705390991
H         5.65490251841428    5.58720359539977    9.60872513483373
H         4.90370940192635    6.96444458946974    8.77011796571247
C         5.04212656877749    5.16983003447147    7.58644285153832
H         4.27753513636420    5.51553534140310    6.87720153980784
H         6.02719461641353    5.39068485538647    7.17982658778745
C         2.84375862053845    6.52579390659618   10.26484905606672
H         2.05104353380503    5.97699022364636   10.78095699851520
C         2.19588590190342    7.56996328723601    9.35573536814048
H         1.54311393819660    7.08301807293658    8.63609466062337
H         1.60068645982108    8.25434193902226    9.95242749659662
H         2.94518335626244    8.14664477349351    8.81772275702710
C         3.74926531001065    7.16511791792719   11.31460191937766
H         4.25305015296822    6.39831023542042   11.89750282539437
H         3.14321938026183    7.76244881980592   11.98955468254219
H         4.49604277160224    7.81518939490603   10.86570358999721
C         5.70246968120537    2.81762313990336    7.00712126301366
H         5.45743455405161    1.82177290095819    7.38642316803338
C         5.30558056437523    2.89238076402011    5.53353565206566
H         5.84134902534289    2.13325298761379    4.97173282076427
H         4.23930857646026    2.71191369024150    5.42473994159339
H         5.54443286052812    3.86672450429471    5.11323423571886
C         7.19901379547763    3.05187173956942    7.20498588127436
H         7.74730138015159    2.21168842251128    6.78947597420607
H         7.43482258535627    3.12500388718402    8.26354691529070
H         7.54037179381150    3.95339517105241    6.70177134503965
N         4.92064084363403    3.74695836561028    7.80566886259808
N         3.56459282309115    5.54339180870218    9.47176517369511

