86
CSD_code = SAGBAG | q = 0 | S = 0 | Stoichiometry = C30H50ClMoN3Si | MND = 4
Mo       -2.71716447534038    1.33896461144723   -4.64888202125721
Si       -2.05952153084739    0.92860091935925   -7.52191399180091
Cl       -4.55925065575333    0.08774352925155   -5.00422302267427
N        -3.08275616758607    3.04641747498729   -4.80163371309221
N        -2.24499148003588    0.95350550072123   -3.01441429177644
N        -1.31067761791574    0.88632844331618   -5.94968622109119
C        -3.33641176615790    4.33918203163202   -4.56309128539036
C        -2.34805886510125    5.32334933995284   -4.80536937151850
C        -2.63123187717142    6.64663779660754   -4.52372126088113
H        -1.88586508287295    7.40524730058759   -4.70953441263553
C        -3.85785198853484    7.02088333871863   -4.00353685083171
H        -4.05700854272462    8.05819160555728   -3.77871770062946
C        -4.83443981916768    6.06437158291351   -3.78365673382299
H        -5.78970671829089    6.37365185990425   -3.38883587089823
C        -4.60394758237254    4.73073945668799   -4.06340127460712
C        -1.03117950911190    4.90014236616845   -5.41419180044260
H        -0.88493750804736    3.83240044830752   -5.17730286225784
C        -5.65169222016129    3.66061146079300   -3.85811335541803
H        -5.52110467879701    2.91801076490637   -4.66323687290830
C         0.16325064817851    5.68558775330001   -4.87421716331009
H         0.13981625841162    5.71871671041512   -3.78809011407948
H         0.16407785066819    6.70556941992201   -5.25142678085544
H         1.09287011933088    5.21331943880616   -5.18660810411913
C        -1.11577751379387    5.04143712135730   -6.93775122523201
H        -1.91428624906553    4.41369557400461   -7.32732484958298
H        -0.17699723351984    4.74338990696143   -7.40145125643676
H        -1.32220896957026    6.07523850384224   -7.20880559554968
C        -5.41515528735520    2.94570012169148   -2.52134914511726
H        -4.42291768567018    2.48197310886851   -2.51225900692151
H        -6.16724257689843    2.17241630127213   -2.37095770914486
H        -5.47970938104257    3.65567602185250   -1.69850873299460
C        -7.08513272283711    4.18444248838403   -3.92721374434408
H        -7.78033000828950    3.34777013026686   -3.95429019042885
H        -7.23387382665051    4.78516885946980   -4.82155284326511
H        -7.32280649608454    4.78830775909810   -3.05448434292802
C        -2.01063150416870    0.86087915901471   -1.69143059427261
C        -1.34986386814997    1.90014445040708   -0.99391042277658
C        -1.13911284261238    1.76769158739227    0.36731223017040
H        -0.64093846026590    2.55946343626414    0.90684327143422
C        -1.56815086814024    0.64805151002746    1.05655385763556
H        -1.40036676495506    0.56823201135917    2.12041787212883
C        -2.22363826562978   -0.36491904443040    0.37966180387141
H        -2.56741531837379   -1.22862682854893    0.92792573704026
C        -2.44635225817576   -0.28516644302257   -0.98274498488862
C        -0.90191060059710    3.14598409697770   -1.72098087322560
H        -1.09663818730371    3.00449901364823   -2.79699961413034
C        -3.20668787701380   -1.36239367028042   -1.71983719702384
H        -2.95616619859282   -1.28299890025899   -2.78852923480831
C        -1.72332252803927    4.35335376998456   -1.26163430375792
H        -2.77928497225220    4.17895877004157   -1.45026011717828
H        -1.42666190709393    5.24356805030418   -1.81115894965675
H        -1.58247440487411    4.53543680058185   -0.19845433439601
C         0.59450188118351    3.39714039304643   -1.51930159682028
H         1.17090295598657    2.51497272411777   -1.78876981809251
H         0.81029611797723    3.64338946959450   -0.48248264209254
H         0.92362669931961    4.22639084326193   -2.14045311791641
C        -4.71026521688172   -1.10324576036667   -1.57975965324472
H        -4.95772075114488   -0.12487266218838   -1.99073707492261
H        -5.00242547544164   -1.12447367541216   -0.53165528496356
H        -5.27753574710641   -1.85978562559912   -2.11831320940674
C        -2.85309126381077   -2.77433837450282   -1.25445905089599
H        -3.28655557820634   -3.50627464138464   -1.93315372327739
H        -3.24424319368986   -2.96984352343243   -0.25918898324874
H        -1.77420503373373   -2.91398667391868   -1.23741853185005
C        -0.07020805943299    0.18162749821474   -5.64888065467253
C        -0.40872205273631   -1.19309225456134   -5.04833162713517
H        -0.97522561262214   -1.78584269064649   -5.76590109744538
H        -1.00576165570609   -1.06253403855871   -4.14316597784807
H         0.49882103031147   -1.73415972552318   -4.78919924176054
C         0.82185361961130   -0.02308066569981   -6.87879332662767
H         0.32867464771256   -0.64635387522347   -7.61908773100866
H         1.74542015563066   -0.51455023412776   -6.58038746269364
H         1.06922047432118    0.93373240523119   -7.32850145705125
C         0.72346890687572    1.00806873698853   -4.62482465581894
H         0.92391251099149    2.00041199003538   -5.02815625746907
H         1.67113587922389    0.52368763922521   -4.39899081670359
H         0.14972398247102    1.11063549361649   -3.70338113956034
C        -2.67734231176591   -0.79721183637413   -8.08207167012903
H        -1.86354431419385   -1.47710265550614   -8.32029195273387
H        -3.28755437066369   -0.70531832760797   -8.97526555672643
H        -3.29043167767413   -1.26968548891334   -7.31573880766389
C        -1.04011826986957    1.68436753576644   -8.94750975544833
H        -0.38318208274183    0.96274772668990   -9.42074083640564
H        -0.43611910011399    2.52346131440945   -8.61952610215063
H        -1.71598224362478    2.05282037204368   -9.71259142981187
H        -3.26148686398967    1.81605176658997   -7.35379018435547

