46
CSD_code = SAGBOS | q = 0 | S = 0 | Stoichiometry = C21H17Cl2N5Ru | MND = 6
Ru        2.57758652566580    6.09547181967319    3.29575136966955
Cl        1.70635187841026    7.14440736586252    5.20579426203632
Cl        0.43258559856807    5.29279639258693    2.71163601536721
N         3.02528379708576    4.61899232453209    4.56913294500748
N         4.81773272506904    6.03653005498540    4.90702825715933
N         4.30242932250854    6.62244306163755    3.87926492129573
N         2.14387009076020    7.58053667498344    2.07554128277214
N         3.08431381925771    5.24463119074327    1.56820652943434
C         4.11036635935960    4.95785468043616    5.31358451678313
C         4.49966445684246    4.20009776184596    6.42649496435037
C         3.74923318341675    3.10011695281412    6.77182733462043
C         2.63396266086851    2.76905238788622    6.00281792079511
C         2.30899271453871    3.55581742752003    4.91530119853347
C         4.94953111791043    7.77650933822145    3.44908045816186
C         5.38748596120186    8.71842588889149    4.38152447516900
C         5.93977498783763    9.90766581795995    3.94858188553271
C         6.08136450371172   10.16179742596035    2.59362147661597
C         5.67601200969502    9.21431703309069    1.66611710574500
C         5.11178983482924    8.02586082062165    2.08544970740927
C         2.05001119294450    7.21573283908541    0.77511920753597
C         1.54415051082296    8.09384220678822   -0.18421719392251
C         1.13901207368651    9.35650272439489    0.19796231159557
C         1.25880076215783    9.72078656459149    1.53481826181714
C         1.76477972563087    8.80460145151674    2.43451643519330
C         2.56634153212378    5.88466564606321    0.49180651422279
C         2.59908430792760    5.29601627775667   -0.77401344445718
C         3.17135891751343    4.05148776246235   -0.93456488915882
C         3.72286476071116    3.42015511842777    0.17712939128780
C         3.65195356829719    4.05112804285102    1.40098697857995
H         5.36147686624673    4.51662608420148    6.98932394534163
H         4.01337746656956    2.50470653546082    7.63254221566757
H         2.01807267600329    1.92126583747865    6.25473084077035
H         1.44096796896174    3.35095831525185    4.30034851004468
H         5.25273351020986    8.50516234095124    5.43039362805836
H         6.26259374962552   10.64112680916448    4.67187513429299
H         6.51412695406741   11.09248292606575    2.25894129546044
H         5.80458337861725    9.40148487705124    0.61019656542900
H         4.82499906940398    7.27094280191762    1.36507166275276
H         1.45835547290074    7.78291425100162   -1.21262472571531
H         0.73425954388981   10.04491398198930   -0.52756832686236
H         0.95233271566945   10.69604731051744    1.87615145441809
H         1.85242824914483    9.03635937963551    3.48942218987959
H         2.16385058319322    5.80715592945024   -1.61666679076130
H         3.19152889740775    3.57674687410609   -1.90292895592769
H         4.18535458835320    2.45019047091929    0.09478227911185
H         4.05796941037951    3.58567222064955    2.29210887889015

