41
CSD_code = SAGJEP | q = 0 | S = 0 | Stoichiometry = C18H14I2N2O4Pd | MND = 4
I         5.70978543553959    5.85124190521267    6.17585620449456
Pd        7.40546115435120    4.59679215593490    4.62518429531967
O         1.59408647382349    0.83622429474495   -1.54245167058261
O        -0.04020916136352    1.79701386983226   -0.34502940088863
N         5.13131312850608    3.56893647941884    2.84266742382223
C         5.98256434038681    3.97022512546816    3.53088550301697
C         4.16880635490549    3.08427279936399    2.02183960264551
C         4.53882343424802    2.28356253220209    0.94029584727852
C         3.55883969404789    1.78865376676944    0.10546036565377
C         2.21944104636684    2.08871282663203    0.34604904364583
C         1.86410741706116    2.88998942954811    1.43031628616082
C         2.83174959415852    3.39271931002605    2.27357162412273
C         1.13049041950403    1.57489083232210   -0.52780994209560
C         0.61237397098623    0.30777955330253   -2.42281684820345
H         3.82446480963378    1.16818886967983   -0.73517071042464
H         2.57258669408154    4.01460675122641    3.11707284783608
H         5.58189049354409    2.06167890867530    0.77069988077882
H         0.81952501708512    3.10663447968124    1.59341737040514
H         0.02904804068712    1.11597946230147   -2.86849814240844
H         1.15462752422465   -0.24117298502608   -3.18809765038972
H        -0.06482501192189   -0.35512136008314   -1.88050151337424
I         9.10103080575444    3.34316953093569    3.07381955310263
C         8.82893860422260    5.22462810218827    5.71805501735346
N         9.67942072159071    5.62621569698506    6.40705438743916
C        10.64258392501097    6.11297305525863    7.22587368506997
C        10.27313225369370    6.91378523635007    8.30754671008799
C        11.25367653144439    7.41029485099145    9.14077106616677
C        12.59308360563775    7.11167589721789    8.89847592986646
C        12.94783873674765    6.31021544503810    7.81414929773496
C        11.97964360231716    5.80598888295660    6.97242690781597
H        12.23837120909317    5.18400711772622    6.12886655492149
H        13.99244975323787    6.09476703418382    7.64967329610820
C        13.68269475830766    7.62757746950043    9.77028527379738
O        13.21984311046846    8.36803062039433   10.78396454344997
C        14.20224817988174    8.89884482079089   11.66211723964360
H        14.78785979834163    8.09207902619470   12.10739367619344
H        13.66049441715964    9.44756738318193   12.42792147948519
H        14.87725035847604    9.56246953142626   11.11795046349342
O        14.85326562671326    7.40514183401533    9.58704444856104
H        10.98849156683941    8.03089469520013    9.98144600655993
H         9.23003156526581    7.13446476215668    8.47852404644040

