39
CSD_code = SAGMES | q = 0 | S = 0 | Stoichiometry = C17H21Ta | MND = 13
Ta        0.24046622881222    2.21859599731497    3.56712029713602
C         1.05178241287538    1.26125003340431    5.44800218868245
C         0.63755531344756    0.22555685531941    4.53767931636127
C         1.66601083666536   -0.53838267519841    3.77269572938441
C         1.87140123303480   -0.20540636321315    2.49674008930030
C         1.04559688249092    0.89427788376896    1.89387582140394
C         2.33931797899960   -1.63953084952501    4.54109293384947
C         2.84745285183547   -0.85810328747032    1.55984514090075
C         1.97540439405383    3.79218404334846    3.20546012002252
C         1.33053929980694    4.41613040450854    2.06873503428025
C         0.58427817388409    5.47377739926770    2.52367438810637
C         0.77252518408701    5.59643176085221    3.92610336403017
C         1.63159373590283    4.61404871841955    4.34433386857167
C        -2.07992552207165    3.54687735267347    4.47595378426220
C        -2.51243105655687    2.61676469277923    5.39230625293663
C        -2.80239789195608    1.40575877896152    4.70993891987229
C        -2.54164705991086    1.58033373713113    3.37054057770792
C        -2.00667942571033    2.90941364158280    3.18530591736891
H         0.48349084792722    1.37361886303271    6.36773239177604
H         2.12326468790682    1.38143140358980    5.60010369299006
H        -0.20986327911477   -0.38493101604711    4.85630978290436
H         1.63364774512829    1.42204601767970    1.13766079950207
H         0.19031704539427    0.44556012170248    1.37564112723604
H         1.64293418687186   -2.46458684835812    4.69589858964826
H         2.63921768383117   -1.27221860765349    5.52176499814926
H         3.21881044658724   -2.02089346313133    4.03190226248576
H         2.34009730189754   -1.13415640499894    0.63620215812766
H         3.64248054876541   -0.15699532166888    1.30376544134540
H         3.29713762427254   -1.75033437771546    1.98337781001378
H         2.94618954325524    3.31263963651474    3.12122288863324
H         1.47422526137974    4.12252502696486    1.04040119084553
H        -0.03518589053968    6.12080069196171    1.92641279390465
H         0.31961383420929    6.35278826296263    4.54388292822650
H         2.02771593976211    4.48053425492568    5.33820250160198
H        -1.85686158841742    4.58529222288221    4.66098857981386
H        -2.64266303023075    2.77623254460257    6.44952661088435
H        -3.17820787957234    0.51003952922537    5.17538850453328
H        -2.73729453065457    0.87646013636492    2.57642155754397
H        -2.12121006834607    3.45826920323810    2.25578964565708

