56
CSD_code = SAGSIC | q = 0 | S = 0 | Stoichiometry = C26H16BF3NO6PSW | MND = 6
W         2.07158743247849    2.16071677245954    1.43895534819242
P         3.12611483132055    1.17452595303622    3.41688966745449
S         0.59569895397625    1.88468353583384    4.97413522620102
N         2.15293215348392    0.15239773211459    5.90987695952485
C         2.73063041392401    0.61116108528022    0.35852883440526
C         3.74775165599739    3.17827759788725    1.04953657227920
C         1.24165362499777    2.96489544714728   -0.18248377056569
C         1.49323238484392    3.73934354611962    2.52416329997710
C         0.36182420219013    1.18605632907851    1.79601768034166
C         2.05426216767358    1.01166588600189    4.88694420508488
C         1.08134034933596    0.16889520379089    6.79533899040661
C         0.13953115673932    1.09749960570907    6.40885992298371
C         3.24243046803636   -0.72809230194844    6.16350559606536
C         3.01585894961525   -2.09681929594682    6.12985150957625
C         4.05508033391849   -2.95908409785263    6.42430926017852
C         5.30177231994181   -2.45911174352580    6.76322930752085
C         5.51137115803977   -1.09194710511770    6.81640890144149
C         4.48037009345272   -0.21722624291949    6.52193635163311
C         4.53041268523949    2.12878920783689    4.05599319012188
C         5.69083654943867    2.14863529474134    3.28458024723783
C         6.75454177954192    2.94960218264091    3.65455255590366
C         6.65732178422968    3.75353961376421    4.77986637652872
C         5.49116214684655    3.76522719200522    5.52730530834213
C         4.42452674891557    2.96088804591974    5.16604688730096
C         3.69114576953405   -0.55093781951150    3.27368106154526
C         4.98451548053629   -0.99983709515351    3.50939082605084
C         5.29057284002124   -2.33604960630751    3.32016549674078
C         4.31740282969924   -3.22603010279412    2.89885518432731
C         3.02679943703507   -2.78110162303497    2.65854432281449
C         2.71647428473604   -1.44755528054401    2.83701161202789
O         3.13704744179462   -0.26903068094841   -0.24074406050477
O         4.67299228619941    3.80144641693434    0.81629164666558
O         0.76881937204561    3.42838698734519   -1.10939420926576
O         1.22077305390951    4.67301233409247    3.11810950841807
O        -0.62198821815772    0.63752334973881    1.97225424683620
B        -0.10780948375548   -0.64031077957770    8.77474161723300
O         1.11931936740653   -0.61993282196364    7.79410321976604
F        -0.22856703624874    0.62751002861934    9.27923662675935
F         0.18263826359917   -1.56624581616084    9.71060599707399
F        -1.20151846557878   -0.96237604331314    8.01346862660995
H        -0.77344505195107    1.31802285333154    6.92192155509855
H         2.03614084170350   -2.47415700483795    5.88392525415359
H         3.88523299542257   -4.02394896704393    6.40073147106311
H         6.10695509398723   -3.13673019788827    7.00208873299712
H         6.47571462802613   -0.69941847561839    7.10061325715294
H         4.63052952181887    0.84940129953079    6.58638075213236
H         5.74500716357268    1.54105990730270    2.38907149421722
H         7.65504676761279    2.95682583947327    3.05923878062556
H         7.48609506743270    4.38306453104464    5.06541664565756
H         5.40790159032618    4.40726634784580    6.39126408374472
H         3.50841642087665    2.98703261679899    5.74163871042055
H         5.74789260899798   -0.31621778404526    3.84944896335737
H         6.29681603308843   -2.68164507009771    3.50269467309465
H         4.56491780397511   -4.26607067227286    2.75174646117114
H         2.26731009632424   -3.47145990019543    2.32446508489395
H         1.71350685177549   -1.08781621478734    2.63688392898948

