55
CSD_code = SAGSAU | q = 1 | S = 0 | Stoichiometry = C27H19NO5PSW(1+) | MND = 6
W         5.94769520264084    2.29791792956069    2.05078133288150
P         4.26220110543520    2.72912911206165    3.78295320369926
S         5.71337155595747    1.29027775737909    6.04722693733898
C         7.43267404695392    2.36379062619200    3.37995350129304
C         6.28010529274572    4.19874004442074    1.51859959711347
C         7.24888277678151    1.80219559812551    0.61273055262643
C         4.49338515711384    2.28057520562628    0.65616602018598
C         5.70803308411124    0.35636794962740    2.50343708564143
C         5.22911021211753    2.77597370050873    5.33371885606180
C         6.97712557928443    2.12059939595565    7.07333687486889
C         6.86030559819119    3.58667351698268    6.77834911422253
C         7.57802103092075    4.54791906887462    7.34523894703895
C         5.64164479330871    5.15095906675506    5.32079452893537
C         6.43623098158463    5.65280430236295    4.30073501522541
C         6.20135226979932    6.93391069374369    3.83106907933164
C         5.19348043460441    7.70398118117169    4.38681393195623
C         4.42831725190728    7.20618234988498    5.42914548054128
C         4.65129758173007    5.92696692120198    5.90594589231513
C         3.17337183737499    4.18669685603908    3.82789478297162
C         3.24587934372284    5.08689209001470    2.77089356807307
C         2.39397887290495    6.17618109193739    2.72876205364021
C         1.45972407590435    6.36210710152821    3.73375289827158
C         1.37073754155804    5.45364921122055    4.77799430361393
C         2.21891964971883    4.36432717311171    4.82790365147010
C         3.09562875016298    1.38433713424400    4.16205091409263
C         2.61072723630091    0.65989540026585    3.07593876297914
C         1.68835012344132   -0.35266727923453    3.26537512850403
C         1.24175716734802   -0.65029035599402    4.54249420870577
C         1.71111895646175    0.07427479470540    5.62614472748480
C         2.62851672002003    1.09279096545002    5.44298690612289
N         5.87868827705547    3.82586589665656    5.80414656447330
O         8.26205716509005    2.41351020670193    4.16732541564963
O         6.54200135234686    5.23380051437656    1.12190881562681
O         7.99374121140112    1.51216459856181   -0.19229080415582
O         3.71718291512176    2.33270141493861   -0.17158094254538
O         5.62478731954599   -0.74510527527509    2.76917113828805
H         7.95754304125574    1.72526444382345    6.80252449561570
H         6.78262013390512    1.89006380475627    8.12114436461558
H         7.44993909427121    5.58283175924327    7.08508962423167
H         8.32129097755256    4.31278389237600    8.08364954009696
H         7.23997701730243    5.05469934665949    3.89742685173522
H         6.81176504075955    7.32852811635465    3.03438312220988
H         5.01375706267493    8.70109796590533    4.01743141821302
H         3.65879352875308    7.81438260845203    5.87712481561251
H         4.06822392119406    5.53260739967159    6.72386894398201
H         3.96652174785778    4.92445089520074    1.98033706631987
H         2.45343140217429    6.87233043345757    1.90662483808619
H         0.79012185066530    7.20731495370616    3.69820033123865
H         0.63085659768815    5.59084283845886    5.55179960371422
H         2.13370010026584    3.65153718950310    5.63470603332953
H         2.96260120196318    0.89235087195759    2.07899104255311
H         1.32176141984674   -0.91065174980599    2.41781783370238
H         0.52785281228429   -1.44458696797113    4.69408932243258
H         1.36028265000086   -0.15301998943410    6.62122511060096
H         2.98085792891643    1.64647622800366    6.30219759716692

