119
CSD_code = SAGVUU | q = 0 | S = 0 | Stoichiometry = C58H34F18O6P2Ru | MND = 6
C         7.90662223876544   -1.45794727584631   18.42757939030074
C         5.28620268379688   -2.17958143050174   18.97968541178410
C         6.00251028286715   -2.02266887929734   15.30445898142627
C         5.72941454738642   -0.75227978625113   15.79668233767783
H         5.86633853086518   -0.53792300344372   16.84762829981547
C         5.26405019704447    0.23441193366638   14.94261373321599
H         5.04574092411771    1.22127321068983   15.32002580163504
C         5.08088075567359   -0.05680632047699   13.59927755646472
C         5.35606039147268   -1.32594868043547   13.09858064075368
H         5.20881750213209   -1.53302810218025   12.04941254387115
C         5.81888883596354   -2.30617710470262   13.95209635669402
H         6.03766325982544   -3.29452393573463   13.57350264529207
C         4.56394086409990    0.98349376957616   12.64171219961666
C         5.44742193056463   -4.68261838891236   16.20225829551236
C         5.85420615005666   -5.96586999127590   16.57325247424279
H         6.89239592149876   -6.13966751762877   16.82678003489187
C         4.93411272412121   -6.99263094109585   16.64863601999292
H         5.24174003966891   -7.98814859807918   16.93038342892467
C         3.59493709722268   -6.72940234105118   16.38354356811355
C         3.17748788557913   -5.45385105888414   16.02683499481964
H         2.13254055724270   -5.26315303347895   15.83619267372355
C         4.10369949795872   -4.42994253703174   15.94215675180945
H         3.78198321108517   -3.43025632748447   15.68633313875337
C         2.57493748309466   -7.82947611403992   16.47551355626609
C         8.12134869898165   -3.84094806847168   15.48673620457225
C         8.17304372329138   -4.94309687111003   14.64097650241824
H         7.28826953876101   -5.53302297202978   14.44929510134239
C         9.37074290490784   -5.30415933144455   14.05025925432167
H         9.42285171685326   -6.16813070281231   13.40458774911162
C        10.51656721284041   -4.56111921053656   14.30330712221229
C        10.46684153477682   -3.43443122992426   15.11348607965209
H        11.36052546163227   -2.85880607069306   15.29783470429070
C         9.26699867590946   -3.07660640782897   15.69605967043391
H         9.21739460997821   -2.21111033951926   16.34388431929184
C        11.81127465031113   -5.02064777906038   13.69129166948558
C         6.12987451821529   -3.65740978257415   21.81530538099136
C         5.73245824169895   -4.92219268846874   22.23287614762041
H         6.41788982548447   -5.75502441943566   22.17254041740753
C         4.45528863442067   -5.13478542941746   22.72226874980940
H         4.14618983398371   -6.12309048630567   23.02675040556728
C         3.56502274964251   -4.07460728092492   22.79535872329112
C         3.96107873460191   -2.79225975671344   22.42733446857299
H         3.26645158985371   -1.96976632664988   22.50147118645239
C         5.23650485446325   -2.59319139891960   21.94008366890343
H         5.55020033716598   -1.60350353280347   21.63008810624131
C         2.16090058314972   -4.29389128168220   23.27858063912805
C         8.64253174976906   -4.82849146660881   21.27690180656551
C         8.35098328043787   -5.97354901962280   20.53819838216681
H         7.49243700795221   -5.98602094126930   19.88083077149740
C         9.17916274692507   -7.07852538239389   20.59939386237973
H         8.97168615611808   -7.95460687674027   20.00358870172112
C        10.30846259008324   -7.04110736545640   21.40549956912401
C        10.58225956012535   -5.92392160947666   22.18327869111879
H        11.45857451045472   -5.90812384549870   22.81294103627137
C         9.75352722992433   -4.82017880080246   22.11342353691083
H         9.99723095391145   -3.93374611506317   22.67815467862306
C        11.23902267039589   -8.21885670185868   21.43489437403058
C         8.35289796438354   -2.05331404046632   22.06074548413300
C         8.17306068436354   -2.25823874950477   23.42784483529614
H         7.66591891635209   -3.14572513754917   23.77992737122442
C         8.64341441469536   -1.33283003078541   24.33793139655178
H         8.51024137077621   -1.48754129364584   25.39805056299191
C         9.28974362937236   -0.18969755299799   23.88008690064230
C         9.47251621191275    0.02346862066293   22.52180629189057
H         9.97628072964911    0.91312536402845   22.17657193173183
C         9.00241742863528   -0.91137367539277   21.61555728103734
H         9.15720481832623   -0.76810330385786   20.55995173103674
C         9.80662283178510    0.79168948823477   24.89560709228987
C         4.63336571070549   -4.44403929230643   19.26125882669165
C         3.60972620965341   -5.43853490427499   19.58956422460152
C         3.98240634477814   -6.76915794604246   19.78923189054511
H         5.02078522878371   -7.04595867974465   19.68783874453094
C         3.02729295859755   -7.70742759535935   20.12371151877426
H         3.31341212819368   -8.73640468684125   20.27731244611067
C         1.69963146607102   -7.32795804367336   20.25731783513400
H         0.95547641526386   -8.06346651332826   20.51991736540350
C         1.32481311989859   -6.00834887509636   20.05550935464127
H         0.29211066216414   -5.71714444036963   20.16335084696930
C         2.27304374385765   -5.06090368582264   19.72356891130164
H         1.99751231131489   -4.02930572766213   19.57160911349212
C         9.77773440352949   -3.95023599712162   18.92409624668434
C        11.05031306647092   -4.69197172150828   18.71344308929394
C        11.12682345959972   -5.68096800290944   17.73713546330941
H        10.26684162194283   -5.86549716482896   17.11027141831061
C        12.28755763723207   -6.41455182016837   17.58560642364406
H        12.34799435989201   -7.17802728733289   16.82494231893194
C        13.37280077998279   -6.16867883374528   18.41236308127590
H        14.27660874340558   -6.74769196043301   18.29852634456499
C        13.30079721545160   -5.18394624560616   19.38509462341369
H        14.14782680464864   -4.99815204750156   20.02797814250487
C        12.14396028796604   -4.44286360071933   19.53596624367590
H        12.06453908161889   -3.67108972350635   20.28644679923381
O         5.81312722288121   -4.75227146759110   19.06853919235942
O         4.22811711597722   -3.20067014145012   19.18477442766251
O         8.78300593538666   -4.30804319682119   18.24409127148528
O         9.72550163444833   -3.04674115476016   19.79535522045057
O         4.87816390061038   -1.06231151472980   18.97190023589829
F         4.44732435235355    2.19745724523434   13.18716438814466
F         3.34794539143658    0.65706887693458   12.16460229623896
F         5.36049888916657    1.11642396090682   11.56719279757774
F         2.98934708632724   -8.86643724067342   17.21670903133827
F         2.26430214218803   -8.33003940279532   15.26555421624849
F         1.41960599826613   -7.41106879579983   17.01612717233530
F        12.13421940160024   -6.26567542801157   14.08847031973981
F        11.74452779166402   -5.06728378221864   12.34821284971953
F        12.85185129603676   -4.24025082364563   13.99684061694112
F         1.25301439426328   -3.67302569980343   22.50604860705222
F         1.80927676875733   -5.58946202392428   23.30045755156922
F         1.96869187803989   -3.83011101999272   24.52680836618195
F        10.89014751792322   -9.11947928778587   22.37680258470833
F        11.26093393735488   -8.88906013925191   20.27228998392872
F        12.50660453243525   -7.87345036172476   21.70053448896698
F         8.87468477795732    1.11577144136876   25.80844564081081
F        10.23174208744995    1.94026066575397   24.35772998881872
F        10.84616596462022    0.28907064917867   25.59063999165586
P         6.63563859796755   -3.32334853394742   16.41380382193373
P         7.70793410025606   -3.29813013429970   20.90079762689131
Ru        7.01801447766051   -3.04892708497880   18.67272217079580
O         8.42522944579954   -0.45294855141197   18.24382047162318

