92
CSD_code = SAGXED | q = 0 | S = 0 | Stoichiometry = C47H40O2P2Ru | MND = 6
Ru        4.51097308907307    0.63277814091983    3.99719280170555
P         2.18074119578821    0.67624869329974    4.16135711706465
P         4.89966772937467   -1.15661217752310    2.56641726330893
O         4.11501151938775   -0.45656082819437    5.70840645359076
O         5.09378044941418    2.66407419507152    1.88662936584404
C         4.81923898666864    1.85858281943866    2.67484588941293
C         5.47191437631089    1.89665612368304    5.43791822737103
C         6.46924331254505    1.03951057359297    4.87181995604542
C         6.98501008017588   -0.14485459474308    5.51896452500717
C         8.29236229749477   -0.56254218948515    5.20898762046928
C         8.91605542929734   -1.56887508703860    5.90115554512866
C         8.26197925056874   -2.19858584019003    6.96116484313341
C         6.96916698098112   -1.85020947090120    7.26409601067438
C         6.28684531004209   -0.86235371770687    6.53306402467252
C         4.85063484910840   -0.75209967840694    6.66961844049376
C         4.17657337809702   -1.15886849359294    7.96194064619572
C         1.55818606592267    1.06245879884708    5.84346935992884
C         2.11750046451456    2.19048344556558    6.43689825957107
C         1.71458216171832    2.59731001019764    7.69410804170092
C         0.74240313688312    1.87934991616158    8.37295205249312
C         0.16780967155040    0.76831358566345    7.77964177271662
C         0.56506306447076    0.36177159021785    6.51657141990737
C         1.05024674198789    1.80577095844237    3.27312851339578
C        -0.32896831776929    1.68422939257580    3.42188043803823
C        -1.17528324540912    2.56942428867642    2.78303845732914
C        -0.65507495272642    3.58778266078236    1.99837440757142
C         0.71543795908067    3.72165835472118    1.85942566443115
C         1.56584851634624    2.83487166435008    2.49792391914244
C         1.41124912738261   -0.94621872735216    3.82276170595771
C         0.72951463396878   -1.19414554000049    2.63457073764511
C         0.20361495603278   -2.44771689602142    2.38002789709490
C         0.35143403755765   -3.46817137954432    3.30388006228520
C         1.05921773431512   -3.23977781607221    4.47274377447782
C         1.59860755510510   -1.99332405793575    4.72418931407989
C         4.29905880141493   -1.04069194131553    0.84691038117895
C         3.28675272376527   -0.13722964548546    0.55134791653961
C         2.80675725291053   -0.02334984336601   -0.74090799184847
C         3.34131486751928   -0.81088220087068   -1.74695610922694
C         4.35542320331761   -1.71149538154324   -1.45885368197378
C         4.83514361134550   -1.82902324443107   -0.16788665260656
C         4.38987237823920   -2.84317508207434    3.03374845425618
C         3.55987262917518   -3.64378136849954    2.25886352239340
C         3.21010400619387   -4.90796291604351    2.69981909542337
C         3.66945852058689   -5.37817774621789    3.91801971289921
C         4.48025115834416   -4.57602858488633    4.70575784043190
C         4.83633635013092   -3.31597485666689    4.26720409884291
C         6.68454407500411   -1.39519483927662    2.22670714613630
C         7.41672463771488   -2.53595368263000    2.52965749982074
C         8.77603823260377   -2.57797164448548    2.26715876704661
C         9.41413931626319   -1.49099916589945    1.69723665449738
C         8.68740154758366   -0.35139662923112    1.38569475122014
C         7.33432910448589   -0.30240931785305    1.65404607865126
H         0.59897219697062   -0.40109774970578    1.91153498014818
H         2.16686421435567   -1.82095490686777    5.62721281529041
H         4.83888852210548   -4.93661191608990    5.65981372916644
H         9.18034094323194    0.50028726105945    0.93936142439735
H         5.47855592343828   -2.69063413503181    4.87474762738463
H         8.81459577605521   -0.05671301538352    4.40870378953544
H         1.19245898100776   -4.03816467657542    5.18881098724607
H        -0.73468277831164    0.89268904704885    4.03663556453131
H        -0.07618081332018   -4.44119256660157    3.11129442886124
H         5.62775345487915   -2.52935770637180    0.05952950619388
H         0.10387112123299   -0.50652962057806    6.06733120731504
H         3.18563509814588   -3.28040732173370    1.31281236360512
H         6.76184357654105    0.58798878277637    1.42461817846204
H         9.92305869078027   -1.86045103615253    5.64058181364247
H         2.88949640409246    0.48100266313661    1.35062318328880
H        -0.59750342463179    0.21214838719085    8.30263701257161
H        -0.33068376604491   -2.62599037248809    1.45770374450235
H        -2.24498950296136    2.46909427789938    2.89832449156541
H         6.93261054827836   -3.39726701967921    2.96738894732357
H         3.39419259902743   -6.36672077020216    4.25614941064560
H         2.63789570889878    2.93564399352014    2.40380687425632
H         0.43083784986788    2.18700679587597    9.36055444612304
H         6.44788342859415   -2.37833774275190    8.04849517815579
H         8.76334186262733   -2.96999369084288    7.52659814380169
H         1.12441760064919    4.51809756703406    1.25525478680504
H         2.15865428319815    3.47125664276365    8.14856534855966
H         2.02080102686921    0.68370102134649   -0.96405563770962
H        10.47502871049162   -1.52870654840572    1.49704760172657
H        -1.32048045363054    4.27810292593275    1.50080682215802
H         4.77422532084810   -2.32266857377276   -2.24538317531876
H         9.33749006524638   -3.46869917753017    2.51046614626416
H         2.57357102313658   -5.52939395932370    2.08667904146778
H         2.97226532378111   -0.72134930870911   -2.75823636371796
H         3.19357035004285   -0.69125212053242    8.00800487152914
H         4.03967973608785   -2.24033123410256    7.99330443942822
H         4.76406150772198   -0.85352888184459    8.82375643864860
H         2.88092527649545    2.73621058605908    5.89483443697381
H         7.19053102719368    1.50428886654854    4.19357178807487
H         5.58949990541506    2.96025393664151    5.23172540064200
H         5.19489271968598    1.70702066969353    6.47995619496904

