52
CSD_code = SAHCEJ | q = 0 | S = 0 | Stoichiometry = C20H26Cl2N2OPt | MND = 6
Pt        0.22509316500251   10.69333133678994   11.02538576642249
Cl       -1.21445135413078    9.18452917652888    9.96652930351033
Cl        1.73387456232262   12.27014124073915   11.89355956662513
C         1.57280636242727    9.18145331993133   11.37477480869432
C         0.93438081447321    8.16938164569513   12.32988933536922
C         0.28122916098734    8.94404666691915   13.48265553428934
C        -0.36206919940190   10.24673246245528   12.97457415215835
C        -1.85075833213745   10.04375921727255   13.25069933725540
C        -2.02139846807458   10.25248169069155   14.76785868458400
C        -1.33369995131693    9.00756115431565   15.36572816646754
C        -0.90654927863952    8.21239394388620   14.12447029202900
C        -2.04235434501561    8.53026759532441   13.15546350298513
C         2.36500320615262    6.29732783264114   12.01965508807884
C         1.48169972452017   12.45645731408993    8.65359555467343
C         2.02093118388139   12.81466876756835    7.42932532734115
C         2.08725933043975   11.86294424285691    6.42474536705966
C         1.60404553017615   10.59160978967990    6.68819829632992
C         1.08026192098129   10.32387365961145    7.94202272020605
C        -1.33706425441372   13.38532816256064   11.53690386496518
C        -2.19623866921943   14.45365006837477   11.34192140643359
C        -3.02804609474612   14.44904389826154   10.23386603482967
C        -2.96647974373140   13.36952912344971    9.36753296301529
C        -2.07858747754781   12.34314569441224    9.64215623810123
N         1.02219271750127   11.23629281039792    8.90566051782849
N        -1.27869257117679   12.35220573681248   10.70303676671053
O         1.89097638386004    7.28408195823993   12.89706933912638
H         2.46480272378169    9.59892044370824   11.85331654433963
H         1.86104533423107    8.70649317461037   10.43002968804617
H         0.18273572432023    7.57491837116902   11.79019290118049
H         1.07555107745953    9.13901855337780   14.20674173893639
H         0.00941366747362   11.11229424168230   13.53405602268533
H        -2.52287670983257   10.65867301282498   12.65132045249753
H        -1.57118130432311   11.18315370776257   15.11127302611129
H        -3.08180117876360   10.27787817512452   15.02206946741357
H        -2.02962777845443    8.42730789198159   15.97195893645890
H        -0.47963247465360    9.26748161624381   15.98946897420266
H        -0.70309582712495    7.16116346079524   14.31692732768314
H        -3.01554139773535    8.21093000832919   13.52545528478577
H        -1.89462253852041    8.13948776751129   12.15476869218119
H         2.95317299683280    5.60731336682397   12.62280112766886
H         3.00258318594769    6.71702699836339   11.23299249842944
H         1.53625822435739    5.75358325092049   11.54871843384433
H         1.43201451486462   13.16904955900361    9.46653962888055
H         2.38393319150057   13.81826231919418    7.27306789000583
H         2.50575734867914   12.10652957075045    5.45928566893512
H         1.63177396970025    9.81663405438884    5.93863703430166
H         0.67537329724725    9.34857928051866    8.17844040446609
H        -0.66087317975419   13.36119196848451   12.38078631811543
H        -2.20970197031474   15.26979366282853   12.04669747336207
H        -3.70961884797866   15.26644073871835   10.05043640778910
H        -3.59591499993664   13.31783515550112    8.49323123465667
H        -2.01889137218249   11.47440113988494    8.99870888793634

