72
CSD_code = SAHGAJ | q = 0 | S = 0 | Stoichiometry = C37H21AuF10P2S | MND = 4
Au        2.01151191959087    1.70404368393559    3.59805052085702
P         0.87875909537177    3.31819310648667    2.45841677008123
P        -1.21767597685193    2.33629635963206    4.02333949328801
S        -0.06295038842016    0.67265340154860    4.00856041794399
C        -0.24093977070164    3.78011351826906    3.74128750021188
C         0.08738694500603    2.76134260068526    0.92567814983179
C        -0.85285210719614    3.60445823945663    0.33743419093596
C        -1.57544979803610    3.16426229507654   -0.75321408460605
C        -1.36894900819963    1.88539210433545   -1.24884054627108
C        -0.43921561108441    1.04642815670831   -0.65721562360268
C         0.28955588991229    1.47745355112190    0.43705102590461
C         1.77967936039567    4.82092192536780    2.06725469139214
C         2.11277376183320    5.18793087634460    0.76803756778670
C         2.91383236726370    6.29676396656480    0.56133757353572
C         3.38891237259112    7.02592738885508    1.63996104431962
C         3.05588330975516    6.65816597028162    2.93541747568544
C         2.25476660143034    5.55421104328614    3.15270086387001
C        -1.96805869726790    2.45829433064004    5.66093323691541
C        -1.17322691655760    2.97133613955972    6.68013340402882
C        -1.66580707409630    3.01678019457826    7.97017128364401
C        -2.94253953678149    2.54771506018146    8.23921752915237
C        -3.72666908344896    2.02542544724574    7.22270771852278
C        -3.24093932223589    1.97106332859207    5.92870044204695
C        -2.57662576576014    2.06191977156307    2.84603429025428
C        -3.50832831304142    3.08959827427183    2.72934557859364
C        -4.50949584972646    3.00217569487133    1.78237544327564
C        -4.57534457252269    1.89654583031279    0.94753448042530
C        -3.64891025114737    0.87463919315484    1.06801791388787
C        -2.64431683736763    0.95253305411368    2.01622148264011
C         3.00247857097053    0.35790311994804    4.74680645317313
C         3.88523286382048   -0.57048128211135    4.22234943746379
C         4.55589297343512   -1.49710194727140    5.01328404078516
C         4.34209675224509   -1.49669709661952    6.38733789553907
C         3.46869314653881   -0.57071383586711    6.94785835470986
C         2.81873418743008    0.33905899705709    6.12099376975279
F         4.10845106775861   -0.57175259196563    2.89567345759871
F         5.40062442424721   -2.37834593044923    4.46705778675514
F         4.97586464637479   -2.37861692745302    7.16473160253208
F         3.26320271813514   -0.56204577773269    8.26855210486715
F         1.98887601612785    1.23427046143201    6.67486615652410
C         3.72959884179075    2.64633619040222    3.17595512856856
C         4.04310923249767    2.88096694932600    1.84691426505197
C         5.15702883196128    3.61065421426246    1.45318270878347
C         6.00552822931293    4.12647999338860    2.42669629361376
C         5.72647686274075    3.89845864668864    3.76937522603329
C         4.59709165357198    3.16428129191551    4.12236365664205
F         3.20206986010038    2.42343902473852    0.90505195074559
F         5.39930009644560    3.84118261452903    0.15970750822392
F         7.07053359808486    4.84903512272946    2.07471870964775
F         6.53017300274598    4.39865940674199    4.71143884680056
F         4.34200202858559    2.98014118516946    5.42455849078365
H        -0.86656209297122    4.64570713683752    3.49082092739195
H        -1.00469662219980    4.59836066212936    0.74217255441588
H        -2.30413101640862    3.81433093123596   -1.21471858295622
H        -1.93900351195746    1.54288825025120   -2.09949027255254
H        -0.28284017526093    0.05124770808502   -1.04566027073099
H         1.01680440609907    0.83056589391905    0.91011798201430
H         1.75497868265728    4.60258947736145   -0.06766423073556
H         3.17825003432860    6.58531050832954   -0.44483723207897
H         4.02381174764088    7.88262353972691    1.47114826486144
H         3.42718898895188    7.22929740830720    3.77322683033757
H         1.98600542780473    5.24437547013049    4.15459275305167
H        -0.17680183749816    3.32311139972430    6.44840132581294
H        -1.05325498537540    3.41105152884964    8.76673158509674
H        -3.32641630796574    2.58250964090531    9.24792764221867
H        -4.71713472619748    1.65349041570591    7.43951780210510
H        -3.83994138210572    1.55611871003117    5.12929086657687
H        -3.44087604794664    3.94619469087191    3.38925454178383
H        -5.23646884775846    3.79561666299669    1.69109623248602
H        -5.35476461384391    1.83236987684687    0.20304484357064
H        -3.70658573835297    0.01209734246011    0.42127301813079
H        -1.91978772944154    0.15854641112579    2.12362973957296

