61
CSD_code = SAHHUE | q = 0 | S = 0 | Stoichiometry = C28H28O2P2Pt | MND = 4
Pt       -3.65665615063154    6.20697701687902   11.88603806921948
P        -4.15968162273423    7.59160683857314   10.18779553275212
O        -4.16954095153498    4.79926545279424   10.49399099812924
C        -2.69613167699328    8.29499347805976    9.37382499907239
C        -1.45266441014621    7.88453792578114    9.84082308442827
C        -0.29657513971571    8.37362468062931    9.26085931368381
C        -0.38112192921845    9.27317648763923    8.21056015017847
C        -1.61939862470046    9.67404248917024    7.73258169820977
C        -2.77783309938198    9.18594537742525    8.30878082775887
C        -5.28030325844454    8.99854365960827   10.43279857256831
C        -6.63673977651962    8.75471387269707   10.63566566553481
C        -7.48956363875178    9.78680996835290   10.97736897524429
C        -6.99497169413668   11.07120876340179   11.13675262883578
C        -5.64384366178351   11.31747156568487   10.95577603465813
C        -4.78723143735232   10.28783965196869   10.61202201034952
C        -4.88286324545113    6.49506973446839    8.90568196060485
C        -4.15075126535549    5.15371560532733    9.17284428474264
H        -1.41670251036166    7.17045027416910   10.66115613541696
H         0.66907126280591    8.05543410760295    9.62446628614849
H         0.51960718550299    9.66078080885646    7.75779846603517
H        -1.68004475599253   10.36905986177909    6.90767268653185
H        -3.74662123666923    9.49708172728866    7.94141644926498
H        -7.01906853352268    7.74839594022626   10.53418060950914
H        -8.54127533923323    9.59086255878923   11.12624936121300
H        -7.66030809789019   11.87728336934146   11.40804883544825
H        -5.25467867505601   12.31655237677008   11.08888160457155
H        -3.73090629642282   10.47849236666220   10.48440888815097
H        -4.73602713593347    6.87782915500817    7.89179675862880
H        -5.94985192200715    6.37224605948207    9.10494512451520
H        -3.12033653989519    5.24426322394666    8.77003678514900
H        -4.65348060527773    4.35551060954393    8.59915271665906
P        -3.15346054760773    7.59163070400484   13.58425128646929
O        -3.14386070439093    4.79929930460800   13.27816122929608
C        -4.61714743162020    8.29494719193580   14.39803106133076
C        -2.03276637425549    8.99852750937837   13.33939732855339
C        -2.43044487900705    6.49509930208718   14.86646109818995
C        -3.16263794874226    5.15378875484202   14.59930029276555
C        -5.86051101139901    7.88418169334354   13.93102678080263
C        -4.53567788511358    9.18609169858516   15.46292547988061
C        -0.67631561581488    8.75464838550025   13.13669505840096
C        -2.52578543418723   10.28782025425107   13.16004793875730
H        -2.57730442802685    6.87790837750133   15.88032737612353
H        -1.36345713326129    6.37217290941860   14.66725224113566
H        -4.19305141075888    5.24443532721002   15.00210427537661
H        -2.65995589133983    4.35556660649679   15.17302232807700
C        -7.01672755829012    8.37315916511151   14.51082399038839
H        -5.89629200100344    7.16993187931274   13.11082014462081
C        -5.69424041422605    9.67407782599434   16.03896135133605
H        -3.56697578928912    9.49743609111830   15.83033474039797
C         0.17657336857947    9.78669914421540   12.79501761141309
H        -0.29402841363595    7.74831906897839   13.23823359102300
C        -1.66910964191310   11.31740774346818   12.81632666492003
H        -3.58212037638752   10.47850892624756   13.28751939332421
C        -6.93241354813998    9.27291034512430   15.56097296487861
H        -7.98229085534920    8.05472291887874   14.14721008787436
H        -5.63377266714914   10.36923462125453   16.86376381743772
C        -0.31796700780280   11.07110331418550   12.63551195455523
H         1.22829234224743    9.59070789326117   12.64624984661470
H        -2.05823231469857   12.31649237835550   12.68313846437760
H        -7.83324201500286    9.66044161881575   16.01360022101997
H         0.34741837045784   11.87714403846696   12.36423586756294

