98
CSD_code = SAHJEQ | q = 0 | S = 0 | Stoichiometry = C45H49P3Pt | MND = 4
Pt        2.05078229802738   -0.50804376317142   22.67650234880029
P         0.66353599507656   -1.10910282067796   20.86015326078485
P         3.56185385972926    0.01567322891797   20.93353339876607
P         0.20440725832518   -0.73238917313456   24.06240212254050
C         1.72775525796485   -1.33705970074375   19.35572270051942
C         2.70795108321059   -0.17245750004270   19.29037252993593
C         3.32159012869319    0.21401418656358   24.15564247223604
C        -0.50220362323750   -3.53409302475434   20.00526510824449
C        -1.52818580198901   -4.46196117165353   19.99670098384739
C        -2.71960642150929   -4.19072348358746   20.64688921625869
C        -2.88920017726943   -2.98434304519342   21.30732719631399
C        -1.87015852326187   -2.05389882570261   21.31579625473838
C        -0.67135276709345   -2.31760242916409   20.65647408697468
C         0.18893817746040    1.59936709006887   21.06970916073780
C        -0.36580774318525    2.81581550154895   20.71518017676075
C        -1.28111880705726    2.87816514773177   19.67737950013145
C        -1.64349443432487    1.72440594505649   18.99871232918445
C        -1.08972987009177    0.50712348598709   19.34979883776303
C        -0.16747335088617    0.44060166741449   20.38914504529562
C         3.78156854246632    2.72049545520401   20.28149179564268
C         4.43063746806898    3.93912157625622   20.23180646834215
C         5.74363385854845    4.04802780639745   20.66144009222088
C         6.40022838052282    2.93357518860419   21.15782101487515
C         5.75671738629273    1.71174700892845   21.20630239532820
C         4.44929765395381    1.58640111026423   20.74029028368271
C         4.95063547913455   -2.26604344227339   21.64458799053327
C         5.91481000824115   -3.24948023086649   21.50970346444359
C         6.82346902541530   -3.18457300090600   20.46743165813222
C         6.77173987313761   -2.13276778405296   19.56453327438406
C         5.80833289618393   -1.15102187865890   19.69532579873686
C         4.88736977495334   -1.21633863751130   20.73755111658306
C         0.18002621336564   -3.58105356026909   23.53052601894635
C        -0.52260243707392   -4.77748212395082   23.46089632617598
C        -1.80341166742770   -4.90981890040759   23.96315582829243
C        -2.37437869582233   -3.80533538078471   24.57898432865132
C        -1.71022827148328   -2.59489003259048   24.65771612019776
C        -0.41553560343233   -2.45778321223571   24.11978543651383
C         1.58389257967682   -3.60226166110111   23.00074178230427
C        -2.54682629989956   -6.20815156107152   23.86959392516250
C        -2.39211593634274   -1.43702180781753   25.31763704855144
C         0.32507758703596    1.02346874150415   26.16038631045993
C         0.45984189167469    1.43160337957750   27.47625418918107
C         0.82692379107222    0.54169911633665   28.47366965121687
C         1.10678090722250   -0.76632259722632   28.10930340749579
C         0.99519140922730   -1.20720350311982   26.79914072045212
C         0.55931899229407   -0.31610733465118   25.80865281787005
C        -0.04587654149963    2.02663928947156   25.11133432532911
C         0.96215857439432    0.98090591234997   29.90109619987185
C         1.40309082092869   -2.61240385496480   26.48142358451598
H         2.27761273522295   -2.27841578704419   19.46589194237385
H         1.11253338240696   -1.39035782231822   18.45156247999670
H         2.16265097244684    0.75118962597495   19.07638059012016
H         3.45316464075533   -0.32325806137619   18.50330734772454
H         3.12913731414236   -0.16765676263451   25.16069632772690
H         3.23195977252945    1.30663853382059   24.20089788212182
H         4.36778711319180   -0.00655533970864   23.90933482278034
H         0.42829403560986   -3.75971312844755   19.50254026582312
H        -1.39377567848682   -5.40424331111700   19.48473430929521
H        -3.51369974269075   -4.92243965861638   20.64408572983199
H        -3.81414838038034   -2.77391506954476   21.82281206309898
H        -1.98725555665222   -1.11354454179616   21.83760394106060
H         0.90303030839899    1.52907116610619   21.89085060872331
H        -0.08680805367354    3.71287742302945   21.24858188616685
H        -1.71803034793851    3.82569922412087   19.39760805711516
H        -2.36127775465851    1.77613651933894   18.19265302257519
H        -1.37710071452281   -0.39535143260034   18.82653325397249
H         2.74817274049681    2.65293026849480   19.96925856002638
H         3.90880761860800    4.81008697822568   19.86221566849945
H         6.24902952438210    5.00144088865510   20.62102198015263
H         7.41738880705513    3.01817106257721   21.51182182495668
H         6.26821133777405    0.84519888307869   21.60249069642164
H         4.24254358575006   -2.29424579769867   22.46451400319254
H         5.95891161148542   -4.06347039619155   22.21823325239646
H         7.57824204408767   -3.94948908952033   20.35833689236771
H         7.48769538089201   -2.07909464771463   18.75702124510669
H         5.77861531035015   -0.32324057376040   18.99890566512038
H        -0.04621130898997   -5.62970151953697   22.99349428147167
H        -3.36976157209024   -3.89012039846059   24.99516617605424
H         2.07853807642214   -2.63043350563719   23.16897202349200
H         1.58702733478306   -3.82665317383059   21.93242682589317
H         2.15827168365363   -4.38062806359479   23.50482291613467
H        -2.14044662150728   -6.82987525218403   23.07493076694993
H        -3.60351590591195   -6.03338267826678   23.67616029123444
H        -2.46521880207894   -6.75824494740047   24.80808075780984
H        -2.32784100368665   -0.55099801973918   24.68422006700491
H        -1.90688201291961   -1.19439758531309   26.26307262437718
H        -3.43896226237111   -1.66117227901810   25.51167658739980
H         0.27264240091819    2.46638694084325   27.73153131749039
H         1.43345964359462   -1.46391873605762   28.86970912097111
H         0.71768288521353    2.03820198604842   24.33279621214367
H        -0.12944524578857    3.02392516681852   25.53776843391212
H        -0.99400304797614    1.76328867611615   24.64199927709402
H         0.50063363584725    1.95377312227494   30.05371667718567
H         2.01537702713095    1.05490566009262   30.17440179010056
H         0.49427754405389    0.26082813503696   30.57065538027127
H         2.03722382070356   -3.00880445412517   27.27271689906791
H         1.95633420846092   -2.63011332189714   25.54509616031272
H         0.53587731653420   -3.26403030132737   26.37970099083596

