27
CSD_code = SAHLIZ | q = 0 | S = 0 | Stoichiometry = C6H16Cl2N2Pt | MND = 4
Pt        1.97861905142008   10.78771416508312    3.70230399727483
Cl        3.73568691731198   10.39808347052834    5.04023461945745
Cl        3.27837763456678   11.34066012747185    1.95840677529839
N         0.57707321630115   10.35094189282921    5.24712530388886
N         0.26353420292805   11.18279846390666    2.52826184594230
H         0.48652814774111   12.05280583603381    2.04171703642937
C         0.67497728158264   11.41399926436071    6.24683308311334
H         1.68267083111240   11.41207358491854    6.66066740134872
H        -0.04960382426587   11.25794679480893    7.05572727739178
H         0.49331337490415   12.38688206857031    5.79179655832037
C        -0.96051664890764   10.63836398246824    0.41934205037037
H        -1.06323097848888    9.86813323193591   -0.33956184881611
H        -0.58676193759339   11.53995972006343   -0.06114801223879
H        -1.94889587639399   10.84350597721283    0.82586413873903
C         0.83234650182174    9.06503342088969    5.89452921168688
H         0.80923176286954    8.26498206972032    5.15510763554825
H         0.08792136375187    8.86110567058772    6.67317418947826
H         1.82692021676829    9.08875140778177    6.33758479542004
C         0.01492712830655   10.16953954827925    1.49505951774749
H        -0.35592473330710    9.25954614766300    1.97160600767907
H         0.97933543929898    9.94701806397273    1.02986460771592
C        -0.74570484496051   10.34669694531086    4.60223115685081
H        -0.90856570194875    9.35634007936343    4.16973062465488
H        -1.53759242426816   10.52656329315606    5.34264646047462
C        -0.83190977394254   11.39010073882791    3.48211859748158
H        -0.73982599292948   12.39421754120146    3.90364140450509
H        -1.81333033367873   11.31723649305313    2.99823556423699

