118
CSD_code = SAHLUI | q = 1 | S = 0 | Stoichiometry = C62H52P3Pd(1+) | MND = 4
Pd       -3.76911601969439    2.32436968022341   14.67295465394332
P        -3.64717749828089   -0.03938458210922   14.50665078543787
P        -1.57001523969181    2.90313901281055   15.40786000116042
P        -6.62773449621410    2.94140301062124   15.50317839181522
C        -4.61791712152222   -0.77704810037467   13.15233343272413
C        -5.05711134570523    0.08724901020994   12.15660082325213
C        -5.74270170757655   -0.39609571086703   11.05747449935060
C        -5.98852777768550   -1.75496068388833   10.94954980009828
C        -5.52001535200005   -2.62632769710830   11.92116717687436
C        -4.82298252683783   -2.14558405428755   13.01436906281711
C        -4.10148909016381   -0.92977539547354   16.02783903712153
C        -5.23035338184325   -1.72430990601354   16.17356693348977
C        -5.50503724310129   -2.31649116840502   17.39522409385865
C        -4.66891751658898   -2.11082664989774   18.47889691269202
C        -3.55473072913472   -1.29523223564170   18.34772178148107
C        -3.27642894492432   -0.70165443736769   17.13244977763103
C        -2.06061942160878   -0.83557701194246   14.06301493869803
C        -1.42622491853599   -1.82212150031671   14.80680413636272
C        -0.22461247285447   -2.35041370461489   14.36568272885189
C         0.35129180051698   -1.90205910594568   13.18916870481625
C        -0.29113087989353   -0.93549051372777   12.43151080505722
C        -1.49456349764662   -0.41383028047816   12.86255309063414
C        -0.59679755290551    2.02450492955826   16.67334888109885
C         0.03083728554669    0.83171404790932   16.31943617501238
C         0.69591117943767    0.08411810986294   17.27271919978893
C         0.73430261469708    0.51306014151871   18.58998843356546
C         0.10905211779346    1.69624396616382   18.94807642652350
C        -0.55822194099567    2.44901906018763   17.99777683434999
C        -0.52266356264374    2.79192204543113   13.92847273570156
C         0.86894323541920    2.81581522896099   13.95365603960310
C         1.57604508737070    2.78891867825516   12.76560299507397
C         0.90592893735613    2.74989239148881   11.55233879878299
C        -0.47820736548836    2.71900989903268   11.52294892474888
C        -1.18859605670021    2.73138103481920   12.70903483119410
C        -1.36483535100425    4.64738055735108   15.91298988024799
C        -0.41539135174179    5.50568545351086   15.37350884237050
C        -0.35047633806369    6.82031873368485   15.80218136403740
C        -1.22728773985248    7.28988016664470   16.76587079393780
C        -2.18425733857485    6.44142829355293   17.29977443867944
C        -2.25628597575712    5.13048014380065   16.86864082160272
C        -5.76333543976550    3.21775201149378   17.06892198542988
C        -4.78521380727369    2.29773793500990   17.45233595777848
C        -4.10653066009311    2.48245610924716   18.64478644955290
C        -4.39213752000692    3.58238839364302   19.44282337287516
C        -5.36032964176914    4.49575766738456   19.05624358279955
C        -6.05229053873992    4.31794369243016   17.86909601966643
C        -8.06289724979096    4.05021592841089   15.47774740015305
C        -7.98493761222678    5.23687756539437   14.75435042790764
C        -9.06516414190870    6.10072781130858   14.73614814886041
C       -10.21973635752211    5.78140607058244   15.43300116794094
C       -10.29823180911717    4.59748387980538   16.15086363327882
C        -9.22340259774393    3.72844817563397   16.17574456748042
C        -7.29776719988535    1.26329310279057   15.51019462832089
C        -7.64346236257518    0.64725167177261   16.71018515894546
C        -8.27709668773223   -0.58162203378135   16.68757747159049
C        -8.55553602116885   -1.19963842142358   15.47823933568901
C        -8.19940599360679   -0.59161644689914   14.28437815255489
C        -7.58178844892025    0.64527923632030   14.29646605350577
C        -3.88803587306776    4.93903711278313   13.25243586240681
C        -3.88108448161252    4.45262246750845   11.93927011277578
C        -3.21831895215320    5.13604493605946   10.93866686120004
C        -2.54911239291739    6.31571651789012   11.22074898471212
C        -2.55594713338019    6.81434435171232   12.51297684461593
C        -3.22169316953578    6.13865494744985   13.51618705116043
C        -4.54788148120865    4.22718220023316   14.34756298014358
C        -5.56142518436704    3.25078521906281   14.13210969719283
H        -4.83213784517259    1.14852830175969   12.25850706638723
H        -6.08170227809158    0.27797280269388   10.28404713096886
H        -6.52981716818600   -2.13903788754223   10.09817596830140
H        -5.68913353469193   -3.68778786871547   11.81815554510808
H        -4.42630529631164   -2.82905323430111   13.75144592693947
H        -5.89493975599353   -1.88029839605005   15.33692987293991
H        -6.37538406701514   -2.94737333640291   17.49715229411358
H        -4.88461284186945   -2.58198604994767   19.42567863781554
H        -2.90146560436057   -1.12808495941237   19.19155811881036
H        -2.41268638379825   -0.05513700734954   17.01984764083895
H        -1.85845084079454   -2.17972699578009   15.72957151135999
H         0.26340912418473   -3.11837540654063   14.94743935646163
H         1.29387062239873   -2.31081766881080   12.85848907967619
H         0.14550134976303   -0.58969276291222   11.50662157834550
H        -2.01246830891355    0.32750225366032   12.26826355865075
H        -0.00008818024006    0.49776127759132   15.29173346001588
H         1.18418001402723   -0.83471223090266   16.98446900894323
H         1.25334544263395   -0.07123831987642   19.33445582257790
H         0.14324412993693    2.03625946171014   19.97273475703794
H        -1.03797434072311    3.37490373185063   18.28230801182895
H         1.39268034539810    2.84956745944617   14.89916553290157
H         2.65559981341673    2.80533361311492   12.78435249739555
H         1.46630750217766    2.73941607911631   10.62962340046782
H        -0.99930206252916    2.68135738764031   10.57766228135155
H        -2.28243578008763    2.68428824164113   12.70929207707397
H         0.26679530293280    5.15528644073067   14.61355787642796
H         0.38939254861486    7.48287268969064   15.37860028143058
H        -1.17148656463132    8.31659917463562   17.09458358584325
H        -2.87845528037293    6.80348510615294   18.04483289063166
H        -3.01529468068587    4.46656513499301   17.26466949533039
H        -4.59907442252314    1.41387992348289   16.83890071680891
H        -3.35563565931942    1.76859997328545   18.94835185988623
H        -3.85805860627113    3.72726673978559   20.36952249657940
H        -5.58070642931311    5.34827511406951   19.68042306337005
H        -6.81077432525734    5.02635446800681   17.56449718638243
H        -7.08061843747648    5.47812903596382   14.21109508079333
H        -9.00675907109113    7.02175779520259   14.17655038474158
H       -11.06229716887483    6.45516997473013   15.41457588183654
H       -11.19982387402179    4.35087961719216   16.69028956907126
H        -9.27954180970185    2.80198918683978   16.72988438362118
H        -7.41633854890128    1.12837935129608   17.65228546860557
H        -8.55727756694063   -1.05565018124506   17.61577761758985
H        -9.05133044986433   -2.15825159071168   15.46576689057671
H        -8.40884209753422   -1.07643145865329   13.34287860564249
H        -7.32367269792359    1.13056178394561   13.36664976577915
H        -4.39007389801703    3.52660687235600   11.69267623942405
H        -3.22318614996174    4.74709767813549    9.93102446170831
H        -2.02928926184096    6.84451564757866   10.43690032194409
H        -2.04285145761960    7.73638300477625   12.74118071900620
H        -3.22742927843426    6.53720118588260   14.52104657098645
H        -4.56141986686485    4.77577361019044   15.29347044572181
H        -5.99240604780647    3.06535427702206   13.15042811098127

