31
CSD_code = SAHPAS | q = 0 | S = 0 | Stoichiometry = C14H9FeNO5S | MND = 8
Fe        0.36308270426404    0.71657774028538    5.21032636274384
S         2.24456789877622    1.94590979358710    5.52409837248383
C         1.59117297397113    3.53779018725792    5.61898854700034
C         2.62115919713252    4.61274978141366    5.62324851713946
C         2.86953038266521    5.37059863287125    4.47874327501768
C         3.79580645254802    6.40691550823624    4.48778219079364
C         4.49113780831635    6.68565676474524    5.64760634386211
C         4.26321080285952    5.92843505372448    6.78829254798249
C         3.33592911292915    4.90062528295558    6.77877805030124
C        -0.48383560909198    1.43328579857715    6.56471669292409
C        -0.46743588853982    1.93810692673761    4.24802500079795
C         1.49779066703156   -0.92899362629196    4.15711756408849
C         1.39463862148555   -1.24176515843989    5.54656437490954
C         0.03345403493572   -1.39747802332888    5.85678590899011
C        -0.71728675019829   -1.12570220559491    4.68228463817093
C         0.20222277288601   -0.87912383803045    3.62503102288092
N         2.18640752164841    5.05703435355512    3.25167743799170
O         0.39666409082675    3.73631750139070    5.72607604286058
O         2.22240249572001    5.87922356241685    2.36298478904967
O         1.63636935987443    3.97738148509272    3.17206822228254
O        -1.09841314725753    1.83544595329859    7.43677524877689
O        -1.11815197089858    2.59641352045318    3.58909659493764
H         3.95698999349562    6.96801881318447    3.57977754477299
H         5.21369630743414    7.48650533898329    5.66287441008765
H         4.81084602700118    6.14214483502623    7.69345694404980
H         3.15399895841856    4.31531959260734    7.66652258951950
H         2.41785964141218   -0.84607212233438    3.60356097566115
H         2.22460132039494   -1.45131547389600    6.20021793669858
H        -0.36967747813579   -1.72824429117957    6.79929928649231
H        -1.77989910318720   -1.27095591812497    4.56809958204153
H        -0.05373919877849   -0.74420576878529    2.58782298514720

