75
CSD_code = SAHWAC | q = 0 | S = 0 | Stoichiometry = C36H25I3N3O7Y | MND = 9
C        -1.17598405466941    5.50377511512391   11.55139850297112
C         4.18853333246871   15.94536792737382   16.32541562109000
C         1.18833590225558    4.78636250399550    8.71049883937675
C        -1.34793379034394    6.87196744091109   11.66629425402133
H        -2.24220458159334    7.34461613625891   11.28841257075372
C         0.39803965304710    5.91072820320948    8.54753902282491
H        -0.53593242110696    5.84971332698581    8.00915548523878
C         0.16411105523145   11.59207948749245   12.78457823559647
H         0.41505735016803   11.20433608940631   13.76453370835417
C         4.54028551708388   14.82000594919761   14.25277806280766
H         4.94472699857654   14.77866738791099   13.25289679612606
C         2.01549324661980    7.18214140359748    9.79129519945413
C         2.38838363518506    4.84105961762565    9.39830191447148
H         2.99124859422512    3.95365019044445    9.51790057939881
C         3.48000241073927   14.86453036797451   16.82022305967195
H         3.07129255214566   14.88808626823150   17.81899445877946
C        -1.15107564946247   11.85158077345030   12.42157186907613
H        -1.95597602281389   11.65958856535130   13.11370498750210
C         0.95657369615050   12.30394712981980   10.75344804836760
C         7.44610709356101    9.30713253566012   10.52204794019571
H         8.23057739980354    8.64901616614886   10.86027622081835
C         3.83058534590356   13.72464199042749   14.73137352503976
C         6.41930638563272    9.67317775132256   11.38201276977284
H         6.38881831217505    9.30415213921111   12.39898627566087
C         0.80181718003844    7.01511306725784   12.72927828552333
C         0.81571087336902    7.10981045830240    9.09375686493252
H         0.21713092578602    8.00288099314550    8.99646231665665
C         5.42291342122445   10.97570792847149    9.78513561719034
C         4.72240409821154   15.93536994462760   15.04851297181355
H         5.27406230544520   16.78661663840339   14.67912608560674
C         1.93547206003719    7.85615640086360   13.24644218335139
C        -0.04278197775205    4.87426401893100   12.03295836339237
H         0.07279993297414    3.80473577950790   11.94006868518197
C         3.63235771916485   12.52168084746646   13.86521493870275
C        -1.40212566256330   12.34523260550279   11.15223433715034
H        -2.41262350650266   12.53918885787459   10.82336368400362
C         2.43240800880446    8.45710226666520   10.44673158112234
C        -0.35335757673615    7.62659726017340   12.25687190600499
H        -0.44619357845496    8.69973660204709   12.33479164209770
C         2.80024460513635    6.04421261284123    9.93809923152555
H         3.72182344920425    6.11976707934710   10.49443451461078
C         2.14893036485918   12.53306140541415    9.91158073115653
C         0.94659705566032    5.63739450601779   12.62417639290001
H         1.84980766346262    5.17949893417051   12.99792097099755
C         7.42796497813535    9.79123654068031    9.22534504710528
H         8.19337642613678    9.51203813196543    8.51623953543907
C         4.31465796361282   11.89220620106183    9.44739675449258
C        -0.33205644887427   12.58820750785608   10.30710430707239
H        -0.49935619228072   12.96045775520532    9.30857050080269
C         2.18438318389370   13.51994533688334    8.92620245137802
H         1.33513699060451   14.16244479276124    8.75719142690634
C         4.42906393294322   12.86155053812858    8.44883582171761
H         5.35048443151011   12.98829531694786    7.90376540856403
C         6.40348388929391   10.64382602711136    8.85102240702491
H         6.35344799399464   11.02184806187772    7.84196617012690
C         3.34789141529818   13.68676608458388    8.19506028169929
H         3.41307041417856   14.45605592585900    7.43984894591155
C         3.30308774329555   13.75321186759643   16.01752389327689
H         2.75550747584175   12.89420774614821   16.37410226337715
N         1.18915232318559   11.79436402358793   11.96850959264238
N         3.20065590381989   11.75522858230631   10.16260564387630
N         5.42562525927462   10.47506603858347   11.02608896315957
O         4.09472970673153   12.52285908821781   12.69568123901536
O         3.00540641603128   11.53472798627803   14.32429751883049
O         1.66028167405550    9.44260212298820   10.43933282173305
O         3.55610413005054    8.49944145599728   11.02019394605787
O         2.96840369272531    7.29496414226273   13.64919421885864
O         1.76922120983733    9.11316224629781   13.21652429840306
O         4.62076261738605    9.29607367350807   13.85152948451329
Y         3.17901748281211   10.38617563175347   12.20259373786223
I         0.54574314657047    2.94216023858060    7.90417549654995
I        -2.66818431956673    4.35908711093882   10.58709816947187
I         4.45980174408613   17.65332585559614   17.54466743725028
H         4.11193679109684    8.41634680908791   13.83231150304097
H         4.35042869191595    9.69836449029456   14.69272146284456

