59
CSD_code = SAHZEG | q = 1 | S = 0 | Stoichiometry = C26H22N8S2V(1+) | MND = 6
V         3.36341354152551    2.97252727251428    0.18350105799894
S         2.45750776508919    1.83601252719943    1.90128990223582
S         1.78112589367622    4.49531494605072    0.22349482938482
N         4.90524103215447    1.50786037329566    0.10600539205614
N         5.41960269816822    1.13404792018428    1.27490149335584
N         4.63531126282749    3.98286861295060    1.31250419256225
N         5.66890160768914    3.42031787555507    1.94012287407769
N         4.33023899364481    3.67725978296156   -1.50003852835393
N         3.74967499838415    3.70465518442948   -2.69723060986399
N         2.24680161316258    1.87716564546213   -1.11845991363204
N         1.78647894021352    2.40840091308233   -2.25388811979295
C         5.75205708459903   -0.16857767362029    1.26891539903249
C         5.43272580770213   -0.66323077891064    0.02410061813659
C         4.90769308383344    0.42998920695434   -0.66547273208529
C         6.55289798869438    4.36030683907165    2.35301461653734
C         6.06439187825671    5.57869852185510    1.95133926400417
C         4.86115865051437    5.28740257839400    1.30004984399123
C         3.31625387960438    1.90021740637570    3.41932278429207
C         4.70967040987521    1.89812083905853    3.55382155904457
C         5.27151790606482    1.85602304605096    4.82682693782919
C         4.48175798954936    1.81166533588703    5.95874133717676
C         3.10035693836437    1.81423198946165    5.82754239420015
C         2.52985581710819    1.84843048313987    4.57452264274763
C         5.66330613672586    2.04346986442774    2.38020756599891
C         4.64259948204019    4.00304750942025   -3.66216106188632
C         5.86534920466112    4.15436860393735   -3.05103053693505
C         5.61357787799195    3.93541448866022   -1.69529355917648
C         0.79015390642907    1.65703430057816   -2.76716748293299
C         0.60829184321995    0.58839121024646   -1.92226867755788
C         1.54977011833458    0.77238941723661   -0.90749716892453
C         1.41990830470297    5.37709328070680   -1.24107244811836
C         1.62567330389756    4.90510536864941   -2.54287823571741
C         1.21862279163204    5.69457180210594   -3.61656341771039
C         0.61750778445098    6.92303773006929   -3.42581571298580
C         0.41006867995676    7.38825166824383   -2.13549118411367
C         0.80272193166307    6.61990522372108   -1.06237008122124
C         2.31828514201226    3.59572789006303   -2.89231507005287
H         6.17849205362930   -0.65027148141119    2.12577658860144
H         5.56132815825725   -1.66356083544703   -0.33251870022623
H         4.55657949146681    0.47341271852920   -1.68104637256518
H         7.44563983669658    4.10655998109000    2.88781724259436
H         6.50715929206220    6.54061125765973    2.10425960344338
H         4.16815778808385    5.96580941046286    0.83389841303786
H         6.34775237357009    1.85578573810710    4.93030897187985
H         4.93965964498582    1.77543061756540    6.93409697274724
H         2.47193513109820    1.78302452164234    6.70370661589259
H         1.45716696025454    1.84162759550683    4.45561135576601
H         6.67951480164903    1.83012511680302    2.74494862948853
H         4.36498107464144    4.09085680471684   -4.69312443752579
H         6.80097375552006    4.38782206934025   -3.51422407913273
H         6.31307239553130    3.96326418850233   -0.88024681076636
H         0.28193970151114    1.92701979283561   -3.67124316890906
H        -0.10107924447175   -0.20638487699064   -2.01968621619640
H         1.73383752030248    0.16089480131783   -0.04265189982030
H         1.37167043299507    5.33562153727436   -4.62483400398322
H         0.31060547327403    7.51001173896560   -4.27639116560196
H        -0.05913837126698    8.34526721450183   -1.97036593969455
H         0.64007493413401    6.96114497566505   -0.05125566893218
H         2.17520450765692    3.44180990789228   -3.97204609370639

