61
CSD_code = SAJCEM | q = 0 | S = 0 | Stoichiometry = C32H24N2P2Pt | MND = 4
Pt        2.95435819577086    3.77288476451139    5.91523799479167
P         5.23705950409557    3.56964227601577    5.73424446680241
P         3.02081798156187    4.12165446727257    3.64406451903201
N        -0.08629194957280    4.42882860208569    5.96449317718198
C         1.02999907005601    4.16677588066491    6.03131751331208
N         3.08605383191346    2.93692305179320    8.90867519153652
C         2.95058402127575    3.25965940398028    7.81479158711438
C         5.74498625464992    3.76514157669459    3.98834010613014
C         7.07149382195877    3.67760060331973    3.58165093871883
H         7.84075731866748    3.44500558404670    4.30435827101809
C         7.40279983655249    3.88157565407750    2.25507690767840
H         8.43406062748274    3.81272957301064    1.94217946044675
C         6.41493899594176    4.17535416449091    1.32613937613319
H         6.67771251567218    4.33031471063684    0.29025290240025
C         5.09377319059810    4.26983020957983    1.72211331141616
H         4.32499579115591    4.50293505098066    0.99900168266461
C         4.75157251546538    4.07188565301994    3.05494728356912
C         2.39441690521420    2.58068509435700    2.91440741002512
C         2.28133699809283    1.49121364583957    3.77466007333202
H         2.51678393416952    1.61360003277043    4.83840766460509
C         1.84885185039270    0.26949814447206    3.29412955274184
H         1.75451139299922   -0.57113797259828    3.96500357862854
C         1.52955655933471    0.13171889397176    1.95285271701516
H         1.18704993197823   -0.82028415008714    1.57554508346313
C         1.63958508459130    1.21465553238273    1.09450241642584
H         1.38242414442026    1.10500385490448    0.05107327186530
C         2.07358744350876    2.43873506908526    1.56880918338726
H         2.14502801610397    3.28681883114053    0.90189108571434
C         2.23942106517900    5.44812404742740    2.69620596476113
C         0.86945836799010    5.36802259546373    2.45557987965818
H         0.32225762961953    4.49082929918076    2.77378943699355
C         0.21993919644596    6.41261320484614    1.82631606785669
H        -0.84055554579302    6.34734503298793    1.63537417991197
C         0.92591462673672    7.54542005076643    1.45181064873637
H         0.41629358819678    8.36089926516292    0.96059563287571
C         2.28148837012281    7.64152993135732    1.72194905868490
H         2.82716043151533    8.53250912604568    1.44720248868259
C         2.93924627743959    6.60123553432242    2.35242827483943
H         3.99497299336139    6.68093376995597    2.57886194007295
C         6.29580979602215    2.25872902046555    6.38946090037865
C         6.58425964970357    2.26593069756344    7.75250312036901
H         6.23221557527268    3.08289539108597    8.36795707738206
C         7.30359907104472    1.22549197614592    8.30834113443490
H         7.53105984624420    1.23451836530531    9.36359129310447
C         7.72195933265542    0.16815668993793    7.51528508712299
H         8.28382371115876   -0.64416566985526    7.95162695574620
C         7.40581310912377    0.14224609838793    6.16646921722718
H         7.71571462692807   -0.69139462313730    5.55314936846362
C         6.68477892210287    1.17864817893952    5.60229349799591
H         6.42267023155920    1.15218804968322    4.55217575226266
C         5.90144216913831    5.11050275227279    6.42979099490823
C         4.98471317310826    6.13712563701152    6.64308522052477
H         3.92119072401914    5.96501679969236    6.43958578862846
C         5.41053495130043    7.35698641060092    7.13407972830233
H         4.69623827923136    8.14798883352473    7.30645022451658
C         6.75339182326347    7.55594900590840    7.41160287657793
H         7.08858400933962    8.50631738358939    7.79945191376987
C         7.66801835152244    6.53554063641340    7.20185060985639
H         8.71288991061584    6.69241598241545    7.42672256437452
C         7.24839072616871    5.31363946984599    6.70937598648900
H         7.96000122487749    4.51326285532934    6.56037038787268

