17
CSD_code = SAJCIP | q = 0 | S = 0 | Stoichiometry = C5H5F4NOW | MND = 6
W         5.21267667872986    6.17758482852956    5.39186658235023
F         4.67822585692125    6.69161241989063    3.65115210763595
F         5.23026348993570    5.05583893945013    6.91527717265065
F         6.36358997182095    4.93603330588009    4.54714078946011
F         3.54321654187503    6.81044398026342    6.01737965804259
O         6.25696439412410    7.40442892753334    5.83071280581611
N         3.77808607486894    4.49075968928847    4.78945819744368
C         4.09804122523511    3.21300561686891    5.00731393919039
C         3.26452131182622    2.16439042290574    4.65380384732892
C         2.04950391186262    2.45002791630816    4.04913250531660
C         1.71637188093677    3.77704777533302    3.82292299925938
C         2.60796314985041    4.76503607419465    4.20819022142907
H         5.05959248186568    3.03487239577400    5.48287204406213
H         3.56290280348069    1.14676280118351    4.84882026016018
H         1.37754651881756    1.65579202520002    3.76074765075769
H         0.78198990648710    4.04387475906105    3.35571292348399
H         2.38714380136226    5.81798812233541    4.05019629561207

