53
CSD_code = SAJDUF | q = 0 | S = 0 | Stoichiometry = C18H28Br2N2P2Pd | MND = 4
Pd        0.74926706574311    7.03941834144501    2.99437551156502
Br        0.20183332787231    9.38023662171528    2.74352772716444
Br       -0.30270017198226    6.27613600949503    0.97291272129641
P         1.26237052320351    7.42399920689044    5.14350517300309
P         1.99080470785597    5.15012999431119    3.10831630565436
N         2.93739743571389    6.17470916186892    6.88298053935329
C         2.41185690895272    6.12949875286593    5.68566052693703
C         2.64056967611389    5.04131810801920    4.80307303449719
N         3.29106025219007    3.97129335382293    5.18053371907787
C         3.81307036138854    3.97245586750141    6.42628641329285
C         4.52860638898411    2.85181152343263    6.88724705909934
H         4.61798664083498    1.99802638404341    6.23407046491351
C         5.09717263697165    2.87488981136519    8.13161978385043
H         5.65155238964275    2.01937889540983    8.48696181030558
C         4.97397866122898    4.00313827092631    8.95967232089395
H         5.43531094607737    3.99283943431068    9.93566002128842
C         4.27735517721051    5.10553575198067    8.54511959635400
H         4.16680579047429    5.97908295168330    9.16853272333432
C         3.67507858466248    5.11170818108068    7.27349964542163
C        -0.30695412429019    6.92602030792694    6.05493129640974
C        -0.58965823538951    5.45492664397157    5.73750562150613
H         0.16410619749476    4.79598188417717    6.17002376285349
H        -0.62078124076827    5.29588394971529    4.64861556971893
H        -1.56005537703383    5.16944502952006    6.14148652781939
C        -1.43670884942964    7.77581664225402    5.46949807495619
H        -1.58365671175594    7.53552524908150    4.40543225094637
H        -1.22254731239009    8.84162671532300    5.55301783392980
H        -2.37036150073116    7.57242570420298    5.99182980256993
C        -0.16103936476041    7.14044365422118    7.55757510654743
H         0.74807326399301    6.66857132381061    7.93001063095887
H        -1.01247439989130    6.70020352976047    8.07469105686320
H        -0.13046482102953    8.20051404526206    7.79866650647159
C         1.87876130189486    8.93183122880947    5.95030288281102
H         1.09886126405308    9.69264379634207    5.94716869120860
H         2.72400257469201    9.30724130979242    5.37071480501327
H         2.19829977980047    8.69049004292124    6.96308188412344
C         3.53207852533235    5.54800099476140    2.09140836777924
C         4.77346502583987    4.85376479523631    2.64642936368190
H         4.59639331139381    3.79278154826822    2.81049918227217
H         5.08579146514215    5.29541021094420    3.59155111438883
H         5.59354250941300    4.95829928945713    1.93764237027295
C         3.70798387625060    7.07118245483267    2.13729535064436
H         2.85153664357404    7.58185631969589    1.66031932724678
H         4.60618689972434    7.36140498734309    1.59358915424958
H         3.81211240264441    7.42251908326598    3.17119389308841
C         3.27096825696694    5.10405373060484    0.65180955691353
H         3.27566721828621    4.01946333999134    0.56717966162941
H         4.04983438675065    5.49826324839372    0.00077587566252
H         2.31223087419484    5.48060979250730    0.29307903448299
C         1.56429572336077    3.42310281299288    2.72429982716730
H         1.15372924986137    3.37599758041558    1.71575745018312
H         0.80405381267942    3.09152834522739    3.43263506500157
H         2.44745007096542    2.79336378673537    2.81952800337008

