9
CSD_code = SAJDEO | q = 0 | S = 0 | Stoichiometry = C2H6Zn | MND = 2
Zn       -0.00000000481288    0.00000000061350    0.00000003018403
C         1.43476167521929    1.43944196181981    0.19930939360491
H         2.37555292167075    1.13541148277028   -0.25148976051253
H         1.63823633340521    1.66341393569805    1.24294501203373
H         1.13925828676900    2.37103203109904   -0.27562127442048
C        -1.43476167569585   -1.43944196203659   -0.19930938855562
H        -2.37555293652914   -1.13541149999853    0.25148974645561
H        -1.63823630311245   -1.66341390638827   -1.24294501977301
H        -1.13925829691393   -2.37103204357730    0.27562126098335

