65
CSD_code = SAJFAN | q = 0 | S = 0 | Stoichiometry = C25H32BrN3OP2Pd | MND = 4
Pd       17.64754673449384    7.28995095102684    7.43501448879873
Br       16.69612427065211    9.44214046743483    7.08609273193168
P        18.74239343479378    5.31339518992725    7.49616758626041
C        20.22325449756575    5.43181577410100    6.33400664121330
C        21.33152605086937    6.24694084276422    7.00054286740701
H        22.14146288512290    6.41718556912862    6.29223022660465
H        21.74152414477884    5.72227023966883    7.86439527240989
H        20.95735264628004    7.21757954809634    7.32415510971856
C        19.69916158107942    6.19131719847169    5.11193766919780
H        20.49361247625761    6.33496638667269    4.38084165513783
H        19.32554029865721    7.18536343665655    5.41732542344384
H        18.88674782236997    5.63987058737183    4.63464749387458
C        20.75571131650259    4.05410921963352    5.95055191060405
H        21.67654742322522    4.16784484276043    5.37999517954254
H        20.04425813212638    3.50886819819319    5.33528183573919
H        20.97816958621104    3.46689903370726    6.84065775041783
C        17.92643727730807    3.73784653864371    7.06263053774386
H        18.59877843086324    2.89928869851230    7.22297352056807
H        17.59331188967218    3.78160099174339    6.02652812897569
H        17.04756248331172    3.62611648692185    7.69789006426500
P        19.39526754156402    7.61509597604902   10.04785238010219
O        19.35709855860824    8.15839961492759    8.66763693268712
C        17.84351780635788    7.92084923683938   11.04892266791606
C        17.52762112927661    9.40476682583694   10.89170354197920
H        16.58841792364932    9.64456558109480   11.38704599389362
H        17.42977095519008    9.66819849172824    9.83760968314368
H        18.31127711050971   10.02213383454590   11.32847281642240
C        18.08731831246944    7.55183790360664   12.50779903147157
H        17.15313963412411    7.61984534269403   13.06321294531880
H        18.80213743365483    8.23066724472292   12.96643044409543
H        18.46938849668600    6.53652166079291   12.59638561328751
C        16.70906881695802    7.07823279912683   10.46649228804067
H        15.79937117269795    7.22831502727549   11.04702363001831
H        16.95915387343025    6.01275200595367   10.49028545267764
H        16.49396620511476    7.38965655540731    9.42357498069193
C        20.81604164324494    8.32647121753480   10.93835223271034
H        21.68920862030582    8.19455778325886   10.29997279512295
H        20.97619509951546    7.83417144637385   11.89057301718672
H        20.64438516003300    9.39224857104231   11.07356252400704
C        19.50593670033032    4.87558192248408    9.09035361470873
C        19.72809104285149    5.81238928831938   10.13160702667056
N        20.21845788943626    5.44156300195658   11.29029115368942
C        20.51802706833163    4.13982114416421   11.47546554598702
C        21.03862747782765    3.69993109109649   12.70696049135863
H        21.18947032816812    4.42580305614549   13.49070454723906
C        21.33940342572309    2.37594420471579   12.87778543110192
H        21.73975494352350    2.03085156726461   13.81915125385622
C        21.13524716584862    1.44957024718995   11.84081553403906
H        21.38509501053282    0.41236634770530   12.00653505291324
C        20.62539025052922    1.84523878337333   10.63425732753020
H        20.45940386076697    1.14844043128437    9.82758705978166
C        20.30424855470984    3.20023242907126   10.42717802477712
N        19.78993189717831    3.60366201037821    9.24916596718097
C        16.18084299745465    6.49066076097978    6.39620609090387
C        15.18745566539633    5.76921629180092    7.05107537851975
H        15.20627154640094    5.65887074413886    8.13365395380699
C        14.15777857312244    5.18423151132220    6.33916489712704
H        13.38548204309649    4.62391119769212    6.84716136197589
C        14.11372811908157    5.31603658886978    4.95061782123124
C        15.09456873998246    6.05877347690093    4.29106694646893
H        15.04342096827660    6.17651290157646    3.21804874784361
C        16.11577773797049    6.64351927105807    5.01482256115243
H        16.85431964216872    7.24816300990488    4.49605567481870
C        13.08003841824090    4.69570762309629    4.21732795388284
N        12.24786105751547    4.17564377726017    3.62236551686677

