42
CSD_code = SAJMEW | q = 0 | S = 0 | Stoichiometry = C12H27AuClP | MND = 2
Au        6.74422771701356    4.44999929569754    0.65012444258399
Cl        6.74132090829192    2.32847539858810   -0.14821621777393
P         6.72879545629026    6.56848462129356    1.41545226007901
C         6.18745922650558    7.79165268535735    0.14826273177231
H         5.10134398140977    7.88773286390076    0.25077187804934
H         6.63882838327318    8.76616384514218    0.36400487182198
C         6.50868617581834    7.36159516795705   -1.28665826272766
H         6.04044013308137    6.38491193614484   -1.46131496321313
C         8.00998756552311    7.21257672491305   -1.49949568066684
H         8.52642845441096    8.14330961886270   -1.27030540237670
H         8.21938532175491    6.94814221009701   -2.53298214878320
H         8.40188658756147    6.41718226819537   -0.86514825563804
C         5.92180359348444    8.37173447451486   -2.26953509719007
H         6.37645392687113    9.35033790508876   -2.12654515690267
H         4.84696231044942    8.46716951904157   -2.13276747200279
H         6.10798140426257    8.05407077438852   -3.29210965933003
C         8.30081886246635    7.31567280935457    2.01819134632214
H         9.01875382300972    7.27684971639102    1.19434655562848
H         8.08103060592187    8.37073501124569    2.22778885627181
C         8.91458050524247    6.65976129905102    3.25822131611411
H         8.15024266712601    6.58465254069986    4.03900010985488
C         9.43644001435371    5.26346137714877    2.94164400403251
H         8.63749898362575    4.62430570436671    2.56538428021450
H         9.85272260480262    4.80167814112151    3.83363320969974
H        10.21624135050375    5.31135229920373    2.18429890049392
C        10.04741189619473    7.54039474531647    3.78443032830978
H        10.49143114329620    7.09391950635436    4.67046536711120
H         9.68167526664517    8.53069099681849    4.04839826983930
H        10.82443884105872    7.64957356422683    3.03083840296009
C         5.57332065052578    6.92527499830529    2.80504507863023
H         5.95252064298896    7.80315105017992    3.34055483904013
H         4.59760247608637    7.18300157624546    2.38296718588479
C         5.41523918393996    5.73002641118365    3.75885548015212
H         6.35877591681488    5.17126285047728    3.79126128809228
C         5.08653757642497    6.21776170200013    5.16786485577238
H         4.16407123651168    6.79511486484645    5.16274207434801
H         5.88395935613003    6.84556385328797    5.56112718346511
H         4.95710735375330    5.37245112596038    5.83889937781527
C         4.32742674812607    4.78917405078319    3.25344029023198
H         4.25759022959052    3.91116114933082    3.89050518060705
H         4.55171764507785    4.45398795193847    2.24067258589454
H         3.36105327378134    5.29018139498019    3.24868576551003

