38
CSD_code = SAJQAW | q = 0 | S = 0 | Stoichiometry = C18H14MoO4S | MND = 7
Mo       11.01692867645161    8.88388635852582    2.89763994818580
S        11.39014488737262   11.37238034362160    2.70020846130318
O        13.23584686379262    8.51552788985175    4.99775394576907
O         9.02610503780457    9.44094264975829    5.20610897694253
O        10.51259874458317    5.85869047991878    3.21233108660574
O        13.02906160123773    8.24117948388820    0.63350846032190
C        10.20603422009054   11.94062923670241    1.37247349779798
H        10.41536007059302   13.00752434762759    1.26553232893249
C         8.81984986137796   11.71673331528926    1.86470202661170
H         8.22602777412995   12.60282134915799    2.03953384894388
C         8.29337148177339   10.51353410636752    2.12310775559414
H         7.28818543096601   10.48324881558123    2.52789372995780
C         8.90006619640659    9.21442562676688    1.91059616134502
H         8.27167529123844    8.38239311964911    2.22458350155474
C         9.80346717358796    8.93200370072368    0.87725460890599
H         9.77552905464341    7.91283990306441    0.49184901589402
C        10.24694985512228    9.90935351320018   -0.09534962443237
H        10.46339102725219    9.50724003966084   -1.07905845552519
C        10.40684303744644   11.22656332917073    0.08450105625294
H        10.70396480229744   11.84110123648150   -0.75548047364502
C        12.98839220162518   11.62092386168421    1.78078692198770
H        12.82169245899744   11.20196619375954    0.78668968570223
C        13.33494466714872   13.06641530842320    1.71778174374044
H        13.45986830443017   13.49517122500285    0.73250768143748
C        13.45394110843286   13.83858798113510    2.80659722844823
H        13.60515663606044   14.90203933511704    2.67067740005870
C        13.39944754150558   13.38334237227365    4.16506800021552
H        13.10277248105197   14.11978679496481    4.90030211074919
C        13.81617021599173   12.17390442302914    4.59818148118434
H        13.83705496076979   11.98627578210849    5.66355770292867
C        14.40033578013995   11.15749760080975    3.77107176138219
H        15.15653981330619   10.54371309951582    4.24304934202779
C        14.09414420436615   10.92053059920216    2.48815828174162
H        14.65403070209611   10.18954823772973    1.92109747611345
C        12.42631827311461    8.68517593861249    4.21145120066633
C         9.76856823139276    9.26180864015567    4.36292000679311
C        10.67999786454782    6.98133865942260    3.07170235904380
C        12.30172346685748    8.50675510204706    1.47090975846435

