40
CSD_code = SAJQEA | q = 0 | S = 0 | Stoichiometry = C19H14CrO5S | MND = 6
Cr        4.25382516425213    3.33930890324031    5.81331571075742
S         6.36812692561976    4.78053405136809    5.69246260135791
O         1.76066590024924    1.68609367759177    5.86015164120735
O         5.36387976062430    1.27415299070961    3.93259428858664
O         2.85031226860269    4.76915150940050    3.57370419281792
O         2.87656703247609    4.92583537179841    7.96009317965592
O         4.95614613375717    1.43565765335546    8.01490756173395
C         7.49545855101308    4.40450038940664    7.14465054368948
H         7.02118664624573    4.86717243660367    8.01082742014891
C         8.85595575760677    4.95126593824347    6.89369571447844
H         9.24728525982508    5.65037133062784    7.61964093086602
C         9.57206129281277    4.63807319263503    5.80396853335951
H        10.50857765439683    5.15412026211074    5.63669756999197
C         9.20821029358073    3.66591069921841    4.81645550759343
H         9.63566157198684    3.80681260136957    3.83256948308305
C         8.50858947195063    2.53393407063445    5.05574899852563
H         8.40321333728267    1.81352972997054    4.25569500243268
C         8.04495206540430    2.11838249524825    6.34649923515668
H         8.03689981935255    1.05137473996002    6.52681476710972
C         7.64961379194737    2.93756919339029    7.33188231840924
H         7.42439672049515    2.54441419364699    8.31287563323397
C         5.89319348783248    6.49341823379629    6.17572641216974
H         5.47550191461599    6.46841698955248    7.18247524477292
H         6.81491983672143    7.07920789550435    6.16423683422689
C         4.90274791436020    7.01452715465371    5.18429788668485
C         3.62180018661019    7.38091791278997    5.57690158413996
H         3.33457948617738    7.30982543551076    6.61590032054737
C         2.71270767071322    7.84757200466721    4.64306428467909
H         1.71853854160043    8.12697084445648    4.95776653804665
C         3.07271722330155    7.94533875320788    3.31069285131746
H         2.35928293778258    8.29951135124415    2.58223657610300
C         4.34914569844281    7.58291268975317    2.91258640397682
H         4.63286825775402    7.65545156071964    1.87338067525083
C         5.25979533145001    7.12108005016962    3.84375155601704
H         6.25414847725780    6.82844806733344    3.53778887682596
C         2.71958345006525    2.32696267682998    5.83330431043687
C         5.00301961154935    2.12869537465828    4.60918240465284
C         3.48044479643093    4.31709714595014    4.41936949205153
C         3.46493140508245    4.40946935992543    7.11587343558084
C         4.82248835276780    2.22701106873301    7.18961347830641

