26
CSD_code = SAJVAC | q = 1 | S = 0 | Stoichiometry = C8H11AuClN4S(1+) | MND = 2
C         4.28338564352177   12.23608307722721    4.15950030679968
C         3.81233778687832   13.55468547582195    4.16146025880698
H         2.81894731483032   13.77038435364986    3.80591193140572
C         4.61457680810960   14.57422162829626    4.62839155128271
H         4.25149532068123   15.58969001665529    4.63219721742127
C         5.90419910831106   14.29205678156094    5.10176010876125
H         6.54271656700189   15.07773621265554    5.46868531664926
C         6.33833953094262   12.99158543627311    5.09129112375770
H         7.31760185718066   12.70416728207694    5.44259218929663
C         3.52733533393071   11.09134957527652    3.70452809331898
C         4.12378411832919    7.59101439825050    3.71596421721551
C         2.17581779189707   11.31878681841326    3.10216070494207
H         1.78839298960905   10.43233144305503    2.60684985909052
H         2.22510435323056   12.11225241573272    2.35991246864841
H         1.46311990583281   11.61254136167249    3.87250061772771
N         5.53912021616779   12.01824996521906    4.63284213674692
H         5.84022763006094   11.04768533167395    4.61854793413871
N         4.11398660055998    9.94440793060948    3.88096987351088
N         3.53252462729204    8.79852015791517    3.54320977853468
H         2.59848847609580    8.76731956906561    3.13359014270134
N         5.34010032926445    7.53314719775288    4.25059429280842
H         5.80835456400900    8.37536762991492    4.54278919973993
H         5.78017696677255    6.63200043111704    4.38649563894777
S         3.22109453376385    6.26369455145364    3.21503571550003
Cl        6.10157282429097    2.86013255898739    4.27584110845430
Au        4.59509880144358    4.43938839964125    3.70447821381241

