51
CSD_code = SAJVEF | q = 0 | S = 0 | Stoichiometry = C27H18Cl2HgN2O | MND = 4
Hg        6.18352111651355    1.52649799749485    9.23119281447720
Cl        7.53710236002956    3.36747609003926    9.15310198012043
Cl        4.15486007653362    0.69898861789304    9.87963570933987
O        11.53018966078720    3.11895380213446    7.36626779221868
N         6.46157568313773    0.31402776434941    7.10811469024087
N         7.60311863640424   -0.41708702138347    9.73853148036532
C        10.64897924224683    2.31624735918070    7.52065295211460
C         9.51914914119785    2.00928782791046    6.57851782008969
C         8.76745394970681    1.02847945881093    7.13704539737644
C         9.34243421172235    0.65039743521152    8.45010206300323
C        10.44834009443882    1.39663265669417    8.69227965050974
C         9.28982647990780    2.73833825259548    5.34864863876700
C        10.36143198815610    3.19520038959522    4.57787831281712
H        11.37177961449282    2.99081883683295    4.89584207238921
C        10.13045397449558    3.89766163653785    3.41085668085535
H        10.96580227110617    4.24303148261750    2.81980928444136
C         8.83465873606866    4.16337949318350    2.99882070362424
H         8.65773149570301    4.71617256276589    2.08828399075340
C         7.76443852096718    3.73107467175346    3.76754200835485
H         6.75342422520838    3.95596160607127    3.46109658401297
C         7.98625070016139    3.02516415840446    4.93210379552021
H         7.15489616747530    2.72582004125533    5.55390073730419
C         7.64379652603850    0.35069947915246    6.48701446541061
C         7.82939287945501   -0.23389914915618    5.23226914246012
H         8.79676197958658   -0.17623768514633    4.75823661098971
C         6.76712991565089   -0.87321944545376    4.62351872147877
H         6.88685902540512   -1.33054092570405    3.65264295889774
C         5.54740246407988   -0.91837007419917    5.28429948860036
H         4.69342815025440   -1.41086245724787    4.84801931835584
C         5.44455124502374   -0.30898290919687    6.52172600790998
H         4.51593393497975   -0.31342766148209    7.07740330709724
C         8.86212470727605   -0.44716734549534    9.29256643047349
C         9.72959716891370   -1.49122618197965    9.62079649757333
H        10.74174578147794   -1.47716236968400    9.24767261788572
C         9.27215905222408   -2.52091747464769   10.41980285343773
H         9.92580852892769   -3.33743511210905   10.68836289857880
C         7.95875662293096   -2.48612764704015   10.86700284956899
H         7.55902959861817   -3.27024259611371   11.48946508219642
C         7.16539015247744   -1.41389947011486   10.50085092948722
H         6.13518608326482   -1.33831644844941   10.82354558095477
C        11.28702456075695    1.42053306256647    9.87269927148518
C        10.72948635171274    1.22529122392904   11.13989482089048
H         9.66129776333057    1.09212414535580   11.23230582479116
C        11.52660154915890    1.25557876487397   12.26579611550525
H        11.08341571494419    1.11321193384799   13.24046378837975
C        12.89006998644356    1.48079585666167   12.14997815943827
H        13.51105188629309    1.50359505999939   13.03303737070625
C        13.44964311962301    1.69140874038327   10.90019563999821
H        14.50938289155190    1.87834473638491   10.80841044025188
C        12.65794985198597    1.66709343356851    9.76821592603672
H        13.09740416115386    1.83143339654801    8.79678172246405

