49
CSD_code = SAKBAI | q = 0 | S = 0 | Stoichiometry = C22H21Cl2N2PRu | MND = 9
Ru       -1.34814673097938    2.59205333008261    9.68876246973009
Cl        0.20031578415232    4.30514135294760   10.12557871845069
Cl       -1.00512747286736    1.77301167456356   11.86848426508470
P        -2.99679626207521    3.85015425769562   10.61475678671665
N        -4.64660958341765    2.22793508817674   12.26260133477412
N        -5.21638609797433    2.35129667984951   10.12930128381154
C        -0.98129980305679    0.46988694609315    8.90560620274280
H        -0.67434956841625   -0.43375440171122    9.42240433565779
C        -0.01361794022022    1.29874428786008    8.31559105932539
H         1.03743047332953    1.04021882130503    8.36905615571360
C        -0.42570965051099    2.45543272790775    7.61348629187029
H         0.31952090277089    3.08208818706949    7.13428648026820
C        -1.78950791713047    2.75222204933499    7.45783253682046
H        -2.10269112408035    3.59497051107690    6.85287323441039
C        -2.75398365600920    1.91914995439130    8.07231532141537
H        -3.81128584527972    2.12693582945811    7.94533700613558
C        -2.35474917394419    0.76804004563820    8.77983657932634
H        -3.10052517176253    0.09619547871274    9.18736811171599
C        -4.38511824131887    2.79673238422496   11.05695857175511
C        -5.71133089653114    1.40658385608470   12.07745842348333
H        -6.13575057789221    0.83505067145631   12.87744997849078
C        -6.05078469560464    1.49467953169913   10.75405633981118
H        -6.83730831961238    0.99861194733399   10.22076806936868
C        -3.93610359231201    2.41246698767253   13.49733837213741
H        -2.86121684877223    2.34500709527057   13.31138460233716
H        -4.22834523841660    1.62638397678494   14.19145074600580
H        -4.16939887406985    3.38402760733778   13.93771927793048
C        -2.81939886595117    4.95027132461479   12.05113046703866
C        -3.91067743246629    5.75523095935996   12.37672116559240
H        -4.81210141101377    5.69971278553087   11.77942779461630
C        -3.83144118962559    6.61701534572538   13.45346294193614
H        -4.67550992052782    7.24208620181421   13.70667270851520
C        -2.66648120653970    6.68185825519903   14.20385932371388
H        -2.60603385126217    7.36050874656030   15.04201763726277
C        -1.58344007441828    5.88291968948904   13.87875893053655
H        -0.67697903354919    5.93711914767938   14.46216246628035
C        -1.65398533946518    5.01325647491255   12.80316069112591
H        -0.81288520786438    4.38763916654556   12.54104408554544
C        -3.61251040028760    5.01491741626658    9.36580389930942
C        -4.86803088699872    4.98616563711269    8.77371286009593
H        -5.57441836490052    4.21963287244846    9.05424438090939
C        -5.19242050874861    5.93332135235696    7.81638021127387
H        -6.16969267624203    5.91276746538364    7.35596192786808
C        -4.27453764300127    6.90228712415156    7.44787092243700
H        -4.53617777068859    7.63652789167182    6.69979014955549
C        -3.01810565974946    6.92745135929819    8.03493661497287
H        -2.29880586613063    7.67903495427161    7.74512377554653
C        -2.68440271626744    5.98683418767081    8.99021236601307
H        -1.70268785230848    5.98277476363444    9.44948212458961

