50
CSD_code = SAKBIQ | q = 1 | S = 0 | Stoichiometry = C22H22Cl2N2PRu(1+) | MND = 9
Ru        3.28115139846809    5.14760144678833    1.91116441448301
Cl        1.80388513375299    6.03744255005285    0.30166615301871
Cl        4.14297432799531    7.33166117333030    2.18283522731853
P         1.42578238839159    5.56963012042122    3.15073555475626
N         1.34300579034255    8.22714111595768    2.44711651527200
H         2.37081512581820    8.13625330231209    2.24845931330460
N        -0.65860088038340    7.62437847682596    2.99822994882280
C         3.33662155545946    2.88849137063333    2.29218922724050
H         2.60834047260864    2.21537840894605    2.73107849152156
C         3.34777950660141    3.09618655787400    0.90568774991660
H         2.61485566143604    2.60341975620076    0.27742380198265
C         4.37948719552869    3.86837333922926    0.31270885733968
H         4.42394750431003    3.96731839741999   -0.76580893677079
C         5.35622385432008    4.45792120600810    1.11419620108116
H         6.17155929864479    5.01403003893950    0.66401032337379
C         5.31441302552377    4.29250014762427    2.52549697015781
H         3.64165791972023    6.37055753657079    4.68765849607237
H         6.10243951584952    4.71974115039145    3.13689758378991
C         4.32729850097066    3.48955669589419    3.11201676226829
H         4.35337356373649    3.27935352694319    4.17515829718725
C         1.60677905423656    5.76210413543962    4.95188958406465
C         2.84996005120920    6.19486411204829    5.40644111760185
C         3.05877457051446    6.40224860018593    6.75785995518604
H         4.02217672222771    6.73863570596526    7.10852304442486
C         2.02915764586420    6.17901036708965    7.65818005419251
H         2.19095862602426    6.33658304086690    8.71324898598357
C         0.78928346814288    5.75271376907386    7.20679064026364
H        -0.01052692407453    5.57741231974479    7.91003475450772
C         0.57008657746031    5.54670679817591    5.85686456113799
H        -0.39498090435965    5.20309706583738    5.51385657266419
C         0.17328641311520    4.29417160365644    2.86823921685308
C         0.15780386344222    3.17735446987297    3.70385509940588
H         0.80946887313777    3.14487626098435    4.56718238730773
C        -0.69210895849359    2.12134975795814    3.42766555260142
H        -0.70774440064313    1.26062446755476    4.07880396475126
C        -1.51388849123587    2.16477675399343    2.31199865789156
H        -2.17146972497741    1.33710609532595    2.09648594699358
C        -1.48376035334354    3.26423576413266    1.46735224316155
H        -2.11434823089491    3.29061361121132    0.59220779762027
C        -0.63997066577927    4.32687284183631    1.73481456882662
H        -0.58929223782691    5.17366091220975    1.06583758523612
C         0.59775159964494    7.18477101420475    2.82620420971214
C        -0.69462645480171    8.95452666815666    2.69521348891696
H        -1.60145134268484    9.52201477065929    2.74496273624060
C         0.56761096736503    9.32913129607024    2.34867580859396
H         0.95128496022859   10.28159768925562    2.04575902435138
C        -1.81379988227774    6.89894277650866    3.45312758841424
H        -2.11688559374575    7.26790410298496    4.43474422961026
H        -1.58902860098438    5.83776029689043    3.51757021938169
H        -2.63911148558750    7.04579661374410    2.75558945196448

