126
CSD_code = SAKDEN | q = 0 | S = 0 | Stoichiometry = C49H73O3Ta | MND = 5
Ta        1.24330259481785    0.81783897096611    3.96236823792018
O         1.38839290725923   -0.69796679895890    2.97996202539584
O         0.22490561281616    2.10307138640426    4.74128994558079
O         1.78597664382887    0.00582409020678    5.73872250013773
C         1.56798654020074    1.94442803682243    2.08732053958393
C         2.82724427695943    2.31670135163405    1.78695241353604
C         3.82755785966694    2.30924266303630    2.87644220531991
C         3.49661334619723    1.34136146056465    3.97490800844776
C         0.50482082563902    1.96063517618399    1.01091702373305
C         3.25504058308860    2.61418077309303    0.36896143474848
C         4.95814530652149    3.04004929249007    2.98291828517618
C         5.91713991398506    2.73144455975441    4.10898026502807
C         5.40218155524570    4.17867002052690    2.10092049631380
C         4.89193662899533    5.57552932278930    2.53688796463099
C         1.39004956765018   -1.91544314243162    2.43566908156884
C         0.36607251323128   -2.82737811267998    2.76447590643283
C         0.41955126128285   -4.10862023200303    2.24358967632467
C         1.45802261348230   -4.49792989944293    1.41553268183085
C         2.43818261622025   -3.58940861767793    1.06706018505447
C         2.41589162635084   -2.29030433428555    1.55071778688362
C         3.45364190429737   -1.27903354043021    1.12284196054313
C         4.84305329030371   -1.65827663022890    1.63745614008784
C         3.46770805414369   -1.13051061954995   -0.40037024253463
C        -0.52381493181412    2.78703320935436    5.60957460761423
C        -0.27463712945669    4.15902477917820    5.81208038053782
C        -0.98387809825498    4.83133111703676    6.79181110578372
C        -1.92940412532447    4.17723828678365    7.56195282336326
C        -2.21106504247011    2.84708386503906    7.32111762020343
C        -1.53785481697207    2.13793010768237    6.33752067143611
C        -1.87763300937240    0.69389664888669    6.04749282089851
C        -3.38950840739517    0.46652933627152    5.97701355446798
C        -1.24257366268399   -0.22849320211511    7.09174955568508
C         2.75595554372617   -0.19703995529330    6.61902371964962
C         3.03006156047678    0.75741984171457    7.62213836838075
C         4.04362350335946    0.50966022804353    8.53335908323701
C         4.78658246966680   -0.65379660391792    8.47865268689901
C         4.51295806271686   -1.59749052173498    7.50387207717384
C         3.51431574697060   -1.38965354995405    6.56984813712969
C         3.15768866814445   -2.41973987841721    5.52349055757112
C         4.32018954083352   -3.32432352199210    5.12114704345548
C         1.98510065312542   -3.26754299394293    6.02750067213560
C         5.06764294202670    5.80018710791880    4.03853952469046
C         5.69738945816919    6.63352449171447    1.77599023125466
C         3.41334251282475    5.71706200908359    2.17979758469136
C        -0.77135857537451   -2.33867921272562    3.63320865826767
C        -1.71571919853175   -1.48799539708546    2.77075167328717
C        -1.55606264513338   -3.45366456328529    4.31942662916290
C         0.70318048821239    4.84595066529857    4.88931815428201
C         1.27246738866996    6.14694088512579    5.44747734028116
C        -0.01791476274504    5.10895387026435    3.56050829186617
C         2.19418712666648    2.01223759255261    7.71854220282426
C         3.04560506775744    3.27831820180227    7.62178967510174
C         1.37984610796342    2.02041751126153    9.01515234696949
H         3.79284006574420    1.72495987042691    4.95097538682802
H         4.02592881996161    0.39673521473379    3.82379403592657
H         6.49457789297834    4.20750058605966    2.10577291236572
H         5.08927066147064    4.03900728050589    1.07158712226916
H        -0.35360197530275   -4.82033886977292    2.48576008170610
H         1.49185760049886   -5.50660426798332    1.03155691302428
H         3.23278817517158   -3.89378214990692    0.40270768420011
H         3.17978334381811   -0.31051464674454    1.55376233709058
H         4.83370115444206   -1.74842092093364    2.72048285818214
H         5.16674625920482   -2.60801924762428    1.21733432681352
H         5.56451935196581   -0.89280724457176    1.35974171595523
H         4.15090088687561   -0.33523843157651   -0.68856540930127
H         3.79108790839142   -2.05031499313630   -0.88162426327325
H         2.47377756135942   -0.88429241886026   -0.76780960835976
H        -0.79980585582164    5.87976465177050    6.96392663464033
H        -2.45896093354444    4.71133946949597    8.33681934757261
H        -2.96842128012626    2.35217271378807    7.90921966857530
H        -1.45836115909691    0.44280747164882    5.06222530528497
H        -3.84801543896698    0.56539028209603    6.95742641776404
H        -3.85520810241477    1.18396740896388    5.30442343429726
H        -3.59960269878501   -0.53765118489563    5.61261479642830
H        -1.56760788137476    0.05242697223667    8.09169490926529
H        -1.53211930237816   -1.26287782133677    6.91279049948301
H        -0.15823531264434   -0.15740824199673    7.04631143495174
H         4.25185642446898    1.23569106808170    9.30559948210771
H         5.57100419257418   -0.83201542130199    9.19940741380158
H         5.08948006292290   -2.50918115245075    7.47841029237308
H         2.82191995796765   -1.87730526028860    4.63222396084364
H         4.55308184956480   -4.03630193426245    5.90987173970271
H         4.05105188529108   -3.88716056958089    4.22895974560357
H         5.21318067690820   -2.74024518223737    4.90795413487118
H         1.14262845460864   -2.62948373803788    6.28263604785330
H         1.67415121023023   -3.97165893241935    5.25778390787701
H         2.27742767933799   -3.82295179227358    6.91720208895592
H         4.42818902898290    5.12660689121190    4.60191604273299
H         6.09982947624691    5.63866846404816    4.33847656436087
H         4.79813703423940    6.82299790162445    4.29676122697073
H         6.74553256621718    6.60475020372894    2.06672581588265
H         5.63578358128640    6.46653304961397    0.70245512671668
H         5.31302929083632    7.62904874981283    1.98849034577080
H         3.01660269010864    6.65053577852933    2.57484232222528
H         3.27866798959262    5.72916394133593    1.10020125211697
H         2.84822967294097    4.88538724474407    2.59135021971462
H        -0.33818926627130   -1.70141846074879    4.41662334790841
H        -1.18475662141447   -0.64345893174581    2.32732513009576
H        -2.12475743367699   -2.09428054426772    1.96363200523314
H        -2.54304818770683   -1.10693441325675    3.36647918710012
H        -2.26181842606299   -3.02296464491459    5.02735226093911
H        -2.12400015332751   -4.03591678509538    3.59717475140526
H        -0.89025034683044   -4.11875824555589    4.86389648543466
H         1.53144257828102    4.14985054956364    4.69728673834226
H         1.66918602815622    6.00241828514588    6.44945153334385
H         2.07996661175411    6.49407367241269    4.80892395532511
H         0.51138039338847    6.92340334089806    5.47987130442116
H        -0.91140912288806    5.70694233280558    3.73288891996249
H         0.63040912437013    5.64235294582115    2.87120852793628
H        -0.30950344028495    4.16737475251482    3.10068907633102
H         1.49305073274697    2.01274634469808    6.87942300987590
H         3.78066558689094    3.31952168306682    8.42229921952114
H         3.56967810089465    3.31780365338672    6.66924347348662
H         2.40536749785144    4.15420819810167    7.69764265322126
H         2.03346613941479    2.10677084497447    9.88045600030578
H         0.68706362020086    2.85981311162166    9.01468726778465
H         0.80671844226343    1.10142270597178    9.11036878230595
H         4.30444248959208    2.36869544856370    0.23185751954168
H         2.67898825156236    1.99734046131275   -0.31740926839497
H         3.08969447026295    3.65477027290941    0.09563919952198
H         5.52139113346583    3.02307851275340    5.08171884072855
H         6.12226584467519    1.66216156866096    4.15230287615069
H         6.86073917577593    3.25161882524090    3.96841888455909
H        -0.49345623289000    1.95254754893386    1.45163616752872
H         0.58432136069260    2.84303603050422    0.37548793919633
H         0.59669770447185    1.07387461360747    0.37635561841167

