97
CSD_code = SAKDAK | q = 0 | S = 0 | Stoichiometry = C52H40O2P2Ru | MND = 6
Ru        3.77824344038479    0.91034307974204    4.51222181184470
P         3.81263164366235    3.18792840765192    4.82337590765285
P         3.48354257324833   -1.32325020914482    4.05794646533214
O         6.49098967644460    0.62397794392534    3.19103208021974
O         3.99321419498652    0.71240251225810    7.52838096620253
C         5.44748105534706    0.80150811294741    3.65811012637954
C         3.85686356092275    0.72636734459310    6.37935873105649
C         0.37413947508774    0.80598765956132    4.53365912042676
C        -0.65385486595546    0.41691552259898    3.66743310769274
C        -1.90641276911916    0.11441809024253    4.16134288305368
C        -2.16684260658332    0.21140130242796    5.51895694250840
C        -1.16077895387169    0.61220300064361    6.38388704613508
C         0.09925291132889    0.89534766470402    5.90053254790002
C         1.68042071531160    1.08005719818043    4.01186652769953
C         2.35188748904728    1.35126846015924    2.94601187467540
C         2.27900614211590    1.86829676904626    1.61168509381252
C         3.28287578205748    1.61458826433438    0.67357798178987
C         3.20298028856412    2.13693923759816   -0.60000180622764
C         2.13497904899324    2.94450284326139   -0.95794363344543
C         1.13584369476917    3.20959534066258   -0.03510877503728
C         1.19675175923267    2.67099772844306    1.23387100809826
C         3.81782389960888    4.28996164342988    3.36242211730988
C         4.67107459827919    3.93109347380621    2.32375515458272
C         4.75233977091667    4.70237917330346    1.18102532844589
C         3.97671244191066    5.84354146114248    1.06338818538964
C         3.14484697759660    6.22133426468199    2.10333605073707
C         3.06843814953457    5.45632780445552    3.25381838665681
C         5.19695668975388    3.94409508950893    5.74253555287745
C         5.19583934354394    5.30972576213671    6.01673174832898
C         6.25442284589130    5.87732564074221    6.69879846920418
C         7.32174628824523    5.09096325430673    7.10628458768880
C         7.32949412796097    3.73449811009306    6.82989664279767
C         6.27009270291716    3.16124206654513    6.14787122938514
C         2.37065054327806    3.75666638748335    5.77652486826176
C         1.13424158409497    3.89654568808831    5.14780437343285
C         0.00401949990816    4.17715571552058    5.89231553410470
C         0.09368347933109    4.31106991593475    7.26836088003916
C         1.31743470255592    4.15919910458179    7.90042535300317
C         2.45155049731609    3.87630426556135    7.16154317824237
C         4.73476474622806   -2.52336014207450    4.63056987000831
C         5.77376707053556   -2.10125056417369    5.44985982729803
C         6.71486515717902   -3.00987070670685    5.90232882665451
C         6.61951318634327   -4.34276036733732    5.54073793539741
C         5.58023604801537   -4.76962302917341    4.72759617732754
C         4.63794062645805   -3.86660543489972    4.27520170596151
C         1.98509594411806   -2.17563268151188    4.67286517881873
C         1.60169166379761   -1.88778536419429    5.97871843784216
C         0.49085438319799   -2.49068532928460    6.53564326314903
C        -0.25182142781452   -3.39016550527863    5.78936285508644
C         0.13811778226260   -3.70116114556518    4.49796746570686
C         1.25570901405097   -3.10590017565698    3.94021520025609
C         3.44136214424735   -1.64164211550643    2.26716007166464
C         2.27732548751701   -1.38581776547208    1.54385961172930
C         2.28337408422882   -1.47505318894246    0.16452923934692
C         3.44883020185622   -1.81005355590264   -0.50547047991088
C         4.61225629190989   -2.05195646477650    0.20741974398451
C         4.61370212205170   -1.96168022420106    1.58728480987665
H        -0.45584554144741    0.35250262021245    2.60609429926954
H        -2.68887263091465   -0.19532591144059    3.48265715595926
H        -3.14992438885260   -0.02358788110534    5.90009907341427
H        -1.36048534413423    0.69607737333493    7.44283656292301
H         0.88840328408209    1.19795231795881    6.57696777167244
H         4.12489648630371    0.99680288959083    0.95836370429047
H         3.98236098615300    1.92223682650720   -1.31751493975529
H         2.08083669971973    3.36582894735709   -1.95112554034828
H         0.30042464297593    3.83822766684897   -0.31002431009801
H         0.40998040451918    2.87018457186106    1.94875248484617
H         5.26736023088018    3.03262946896840    2.42208228259288
H         5.41297840993291    4.40975145218537    0.37851642464407
H         4.02373463301098    6.44055671774535    0.16472293402494
H         2.54894587860296    7.11894025744065    2.02004242936750
H         2.41877864973308    5.76893781926338    4.05917310617130
H         4.36166333606558    5.91925160745204    5.69704567980646
H         6.25027068284265    6.93604180911292    6.91399694705768
H         8.14775170002530    5.53869484707402    7.63906244280210
H         8.16112570814611    3.12193737918019    7.14585461656093
H         6.26266885235818    2.09913288724888    5.92519990798711
H         1.06499632108823    3.77548337741506    4.07530651631632
H        -0.95170895783889    4.28099493630170    5.39925098071310
H        -0.79153010540437    4.52570951951450    7.84872074026245
H         1.38718211514588    4.25341897179094    8.97449023634968
H         3.40473117092634    3.74012842726950    7.65584207763330
H         5.83690523951721   -1.05324434447897    5.72463829141967
H         7.52309914222923   -2.67702321903489    6.53684182861863
H         7.35422532442966   -5.05211210157438    5.89231989007588
H         5.50612442631763   -5.81038155765797    4.44735383432641
H         3.82621106758159   -4.19579443242062    3.64107224703243
H         2.18526466239285   -1.17831446935828    6.55161429098524
H         0.19910773836057   -2.25387372589146    7.54804435894803
H        -1.13058897247260   -3.85201702710997    6.21453132949741
H        -0.43165572410750   -4.41301092147043    3.91801220616363
H         1.54971124079676   -3.36413207038968    2.93260125440300
H         1.37280040636072   -1.11108394388045    2.06930090321656
H         1.37888912279468   -1.27285283912639   -0.39075577807084
H         3.45213865121141   -1.87469465670548   -1.58355740480779
H         5.52431911312879   -2.30350807854752   -0.31433823653152
H         5.52585841270906   -2.13218684597702    2.14452401175190

