127
CSD_code = SAKDAJ | q = 0 | S = 0 | Stoichiometry = C50H72NO3Ta | MND = 5
Ta       -1.13783653940059    3.37289216945378    2.68747984802455
O        -2.81547092131164    2.67006765441408    2.34762022121517
O         0.16840126453336    4.75504243637982    2.52322953682046
O        -1.36322605510602    3.65887443495301    4.52875445193563
N        -1.10013349040928    3.51960716150073    0.37973917750645
C         0.20609242515923    1.72066412957854    2.66314266955457
C         1.28602857423859    1.52460915332429    3.57596447981742
C         2.11065607691954    0.44102501998347    3.48482179990662
C         1.47749867251555    2.54604116976960    4.67447133874558
C         2.87790082013458   -0.04662966220362    5.85765520899587
C         3.58885088288666   -1.46088066370493    3.95644317774331
C         4.50604723427128    0.83592167635661    4.14929946290746
C         3.24771869554342   -0.01994484136885    4.36795075128826
C        -0.09414491249006    0.58068477255283    1.71998988454720
C        -4.12976415768078    2.45203303856263    2.45194957148542
C        -4.96218031476607    3.34389427071741    3.16019769808997
C        -6.30980072629640    3.04209609544482    3.29173853889856
C        -6.85359088045311    1.89623197865169    2.74679225374076
C        -6.04735603522924    1.04873345102292    2.01178871053372
C        -4.70131061791558    1.31934525711985    1.83672358946208
C         0.73018431055838    5.62073423778342    1.68024531988947
C        -0.01135757344426    6.69541088410400    1.14395256861988
C         0.59482669458173    7.54998400048342    0.23670251916460
C         1.90655946961747    7.36972063959536   -0.15627104177323
C         2.64026365648100    6.33080507972720    0.38344471379736
C         2.07807853651035    5.45283422861992    1.29396552652470
C        -1.50302297174969    3.53834411873454    5.84234932986020
C        -1.05968548170609    4.57661250440046    6.68748707523052
C        -1.20583366821493    4.44815269290525    8.05811813475657
C        -1.77403883132722    3.31582077175488    8.61043030081781
C        -2.20155969515381    2.29378958426094    7.78290857450795
C        -2.08436688599306    2.38042361128251    6.40510644407404
C        -2.18637373255279    3.90686627273972   -0.31018647454047
C        -2.14620243791544    4.34097587070094   -1.61600144208226
C        -0.91836317535106    4.41623599626838   -2.26919427357119
C         0.20990098229681    4.00596271399703   -1.57014885746997
C         0.07522972188349    3.55412626905109   -0.27476154518148
C        -4.44217519388675    4.64675113480764    3.72692308036178
C        -4.73011854197710    4.78236737685781    5.22324915498104
C        -5.05116400112953    5.82182093222494    2.95401415671103
C        -3.82654252099436    0.40635391195837    1.01207847955833
C        -4.49687201231987   -0.03603330874217   -0.28907327266134
C        -3.40944961416862   -0.80544681833900    1.84850736831142
C        -1.42928064354303    6.95200758539816    1.60483892949300
C        -2.35050827190707    7.42408452236174    0.47938369221245
C        -1.40644264858365    7.98111087060326    2.73945366257780
C         2.90077785517904    4.35247478923357    1.92245469621883
C         3.85917971962708    3.67474071852987    0.94294692230512
C         3.67969173634172    4.93283064019266    3.10705631725301
C        -0.42299419055816    5.80902520960197    6.08686625536977
C        -1.24187845281625    7.05961356047808    6.41473141646574
C         1.01947373901686    5.96990206773978    6.57234048564505
C        -2.53695151743192    1.23918890919577    5.52228595894327
C        -3.95924382441234    0.77851642642991    5.85105005770862
C        -1.55407345280215    0.06897827343306    5.63416962257709
H         1.96211976996797   -0.21933981836838    2.64582414331640
H         0.89622697940218    2.26913474513952    5.55449630294353
H         2.52028647563446    2.62374710324148    4.96127597029486
H         1.14282563554577    3.52841058141813    4.35316284675189
H         2.79040668401640    0.94862190403204    6.27749136565323
H         1.93033811356352   -0.56196774251768    5.99695532968557
H         3.64452347875555   -0.58050042648384    6.41708914962592
H         2.72606898785409   -2.10849424847625    4.09653427645231
H         3.88677564747869   -1.50400512207319    2.91080892372656
H         4.40838600730411   -1.84805191405805    4.55891506901202
H         5.34115919651614    0.42727606702334    4.71575725667394
H         4.77497687365438    0.84146015973850    3.09485960097490
H         4.35180594554216    1.86315728546033    4.46598472988710
H        -0.99399340979261    0.77155350431820    1.14285304457293
H         0.72221780265481    0.45209393453475    1.00329595923902
H        -0.21849534960615   -0.36404022163775    2.25394220069062
H        -6.94973239195753    3.71973514799268    3.83674913772290
H        -7.90160474587794    1.67369964585052    2.88004245518757
H        -6.47459424052877    0.16525295462230    1.56321762457678
H         0.03451426007432    8.37734384781640   -0.17052453721909
H         2.35795191280226    8.04464425687001   -0.86826587043962
H         3.67165237771611    6.20497744288929    0.09245725355789
H        -0.86664595966246    5.24220020067205    8.70675399295398
H        -1.87966421101607    3.22730984765632    9.68144036556471
H        -2.63486566326545    1.40744988019806    8.22142440915194
H        -3.12686072949188    3.85305346121869    0.22396324736535
H        -3.05893145926171    4.62711591687608   -2.11545726642081
H        -0.84984926579488    4.77108576069937   -3.28491101659493
H         1.18466147595224    4.02841526480666   -2.03056071886222
H         0.92289898809235    3.18050813603510    0.27893768451574
H        -3.35575265953486    4.68539396950848    3.59963894826340
H        -5.79930285761801    4.78691184797728    5.42153695513111
H        -4.27581326609703    3.96391314814486    5.77613797121891
H        -4.31183501738511    5.71392277337222    5.59949691949246
H        -4.63044452273215    6.76276016603690    3.30349004732025
H        -4.85137468243348    5.72398664490586    1.88807323071008
H        -6.12940057908624    5.85678716305792    3.09392953824440
H        -2.92777150988063    0.97463237361179    0.74590830847005
H        -5.30877120335544   -0.73318363706365   -0.09894991420604
H        -4.89590334017296    0.82178963348698   -0.82663521933806
H        -3.76921703560004   -0.53471399387940   -0.92633282371508
H        -4.28843479129672   -1.36646054521886    2.16023396253843
H        -2.76350434569626   -1.46303813349528    1.27051851778968
H        -2.87164016281828   -0.47781482474705    2.73474255000913
H        -1.83961933513807    6.01562192079971    2.00603812808335
H        -2.10848660826152    8.43965534508225    0.17574877013749
H        -2.26530651105620    6.77366001934345   -0.38888632270955
H        -3.38422211638433    7.41907619108725    0.81888814303480
H        -0.77906470924435    7.62697370569218    3.55297021509091
H        -1.00307962383637    8.92655195211187    2.38146069022035
H        -2.41046238867641    8.15413688446225    3.12205931678813
H         2.21297913581250    3.59140128840173    2.30179877781366
H         4.26052374660583    2.77259829803323    1.39871489223939
H         3.34735298733392    3.39728937208795    0.02375931785476
H         4.69467568795808    4.32354218222674    0.69089641558239
H         4.27340658556886    4.15759008015056    3.58540142461982
H         4.34827817876717    5.72292615834220    2.76978506789649
H         2.99499671222097    5.35157909784969    3.84042513508105
H        -0.40240630140158    5.67827310458903    4.99758798545101
H        -1.30795672689712    7.20487532466085    7.49046913068333
H        -0.77876011655571    7.94346457870228    5.97985785400859
H        -2.25154426208335    6.96784763606730    6.02058460728738
H         1.58929123100418    5.06590551436919    6.37123693008092
H         1.49799797920879    6.80336767371156    6.06081095582449
H         1.04815323861472    6.16318952480357    7.64216665153111
H        -2.52808369539797    1.58657084383265    4.48529155448940
H        -4.65143045260706    1.61708268513336    5.83390169133415
H        -4.29267039116564    0.05433651317236    5.11064096901112
H        -4.00643822458282    0.30968052772599    6.83098289298518
H        -1.44220342497081   -0.23909107638343    6.67187468765929
H        -1.91583832626063   -0.78193443626687    5.06021894233308
H        -0.58042255843075    0.35659996812241    5.24563702520844

