62
CSD_code = SAKFIW | q = 0 | S = 0 | Stoichiometry = C21H27ClO9RuS3 | MND = 6
Ru       -0.39347020713335    1.81193180826596    9.28649803565216
S         1.35791247604724    0.96052398723448    8.11333812858246
S         0.69361371219624    1.69583606096414   11.22632276274187
S        -1.37340418930523   -0.19569873673579    9.41868902999891
Cl       -2.17580426827609    2.73392158668583   10.46775616504791
O         0.45166941686465    3.69620791650431    8.88183102331115
O        -1.37207788460162    2.24397507350735    7.48172378187620
O        -2.95547571836264    2.02733048054462    5.42720223788665
H        -2.48629443679523    1.79594997639983    6.26303858612870
O        -3.00324550036993    5.53975859596662    2.30763264429488
H        -2.60588863535267    6.39818573716983    2.11458157132590
O        -0.13194991752487    5.84123342538370    6.04927025785653
O         4.29522506856701    8.87556514142948    9.24133606863116
H         4.74833939661289    8.49927079593699   10.00581698758170
O         0.94102671104861    0.67347513961890    6.74244974794232
O         2.10287576703773    1.34242874732584   11.09119092291704
O        -0.52959722576030   -1.20918009820315   10.05022717498429
C        -0.01526296528964    4.16475628944037    7.75863865734123
C        -0.99777634506220    3.38083724948298    7.03267210726339
C        -1.52272276894771    3.90826801163212    5.81519074384489
C        -2.49652063916617    3.21940379726838    5.03835529495134
C        -2.96990335283328    3.79230633960188    3.87651791106493
H        -3.70851066863559    3.27855119108986    3.28545554250699
C        -2.49732001928084    5.03860283936457    3.45488744230061
C        -1.54462156723525    5.72151683673967    4.19228158029674
H        -1.16848579589834    6.68228969597967    3.87556969282102
C        -1.05690603812351    5.15903708574197    5.37049580974653
C         0.39946492119952    5.37860721820202    7.21248835142054
C         1.40806424721017    6.26490194850844    7.77078236911092
C         2.18587063805354    5.90700406714099    8.87566700802926
H         2.03300240433235    4.94780525814459    9.34000775478903
C         3.14623206197110    6.76301829144633    9.37239720041263
H         3.73984441999956    6.46685832679641   10.22760456639678
C         3.36027631020176    8.00429572799014    8.78295364139226
C         2.59261547812735    8.37389068755705    7.68018407553650
H         2.76525385264568    9.33870063105069    7.23082872951943
C         1.63626283452254    7.51874832991060    7.18515154498486
H         1.04732510425225    7.81816237621767    6.33348670281813
C         2.83671919567965    2.01461554953080    8.01226176170010
H         3.58216337878557    1.50844087464729    7.41040888941367
H         3.17235478232267    2.16594250856221    9.03171798775799
H         2.55612956962941    2.95809859551611    7.55693005970595
C         2.19051530480194   -0.53748303085630    8.70988334304015
H         1.43053356474267   -1.27165925590178    8.95648457610334
H         2.74489753439282   -0.26880918583852    9.59995554977472
H         2.83364373971300   -0.89859745811702    7.91625211164308
C         0.00042253093098    0.66793863383352   12.55230830868519
H        -0.02905149144563   -0.35322524986962   12.18463709325849
H        -0.99963174749290    1.03926627153392   12.74651232195347
H         0.63596197819236    0.74417992051097   13.42639933715657
C         0.64245129288068    3.29447851666370   12.07833200058854
H         0.98277694828357    4.03875174414905   11.36490229016560
H         1.29306792017836    3.25553969573714   12.94402579594701
H        -0.39064748475027    3.48992205691504   12.34281917896002
C        -3.02323349551738   -0.36821473175829   10.16386952763230
H        -3.38379511204094   -1.37316921961607    9.97919949483472
H        -3.66220512921971    0.38631539217067    9.72049448116681
H        -2.92818727948062   -0.18247647666305   11.22763325128043
C        -1.78492780611297   -0.82042117839655    7.76302558306784
H        -0.95746303612566   -0.57330298981869    7.10122347715681
H        -2.69053933157183   -0.32901013159716    7.42783471298355
H        -1.91559250361690   -1.89459868861430    7.82766701268889

