39
CSD_code = SAKLOI | q = 0 | S = 0 | Stoichiometry = C16H14N3O5V | MND = 7
V         7.58506664872535    3.25391359493334    3.46469804391203
O         6.46933978010066    4.69351961491855    4.45098333449436
O         9.22263178119380    5.17285881845630    3.44279250835465
H         9.16237172851166    4.95288076427666    4.39084821449101
N         6.99725389627950    4.44721909489315    1.98969475536023
C         5.85799108387355    5.46543407814330    3.68448207127519
C        10.57139006909362    5.01744377660816    3.04820420564984
H        10.93131382328149    4.00097724944454    3.24356539408655
H        10.61940407149236    5.21727327287226    1.97670608034399
H        11.20966887942767    5.73648289232303    3.57376673251074
O         8.97717843024017    2.51021935960737    4.20218720123534
N         7.40845250576313    4.22960106089369    0.79396349699945
C         4.92529159148726    6.44679395758160    4.16960215946716
H         4.74870653140986    6.48196745348312    5.23384630324815
O         8.27402985669866    3.20476484548427    5.07312311802791
N         8.51324966410257    2.47963301983029    1.81591646181399
C         4.29754040874947    7.27304313521670    3.30519577100257
H         3.59139545615542    8.00602980013499    3.67081988598263
O         6.39898924323212    2.30751171568818    3.23536113587017
C         4.52373237136422    7.22322312985349    1.89372879212964
C         3.84168633438130    8.09841180462211    1.04009389892524
H         3.14927645001749    8.80890520930794    1.46818381795716
C         4.04203212532158    8.05890413050404   -0.32082991529004
H         3.50942042201775    8.73782711269116   -0.96966675132139
C         4.93404816009514    7.13556783888934   -0.85713791086681
H         5.08986608786175    7.10055661149047   -1.92518766532934
C         5.62081650701889    6.26299647793499   -0.03993408038472
H         6.30746989217969    5.54919492915918   -0.46275354186000
C         5.43570891401235    6.28477646008483    1.34832973199327
C         6.11097100690572    5.39594374359721    2.26445188204248
C         8.24593543425710    3.17289019412539    0.69525529674216
C         8.78252066214608    2.79873380206831   -0.54771789501522
H         8.55258677261450    3.39575772479229   -1.41483283883284
C         9.57197750805837    1.67355073789588   -0.61374165187193
H         9.99561426809356    1.35537041686567   -1.55450898443276
C         9.80597544606546    0.94434881486145    0.54932956295746
H        10.40049823700982    0.04570192227390    0.53084639083200
C         9.25665951811995    1.38797179381777    1.74095784910440
H         9.41083843263839    0.85999964037245    2.67387713839433

