62
CSD_code = SAKNEZ | q = 0 | S = 0 | Stoichiometry = C28H28ClN4Rh | MND = 6
C        -3.55563097993958    1.84997684315078    9.55871642784180
C        -4.56562101806940    0.62244869517025    8.00582805766779
C        -2.97862770379017    1.22743020236224   12.42676394990955
H        -3.69880484541053    0.49972728840206   12.05039584158606
C        -3.42118710655961    2.54265744871527   12.58415115897127
H        -4.44404908408954    2.76103640262982   12.27646809688748
C        -2.88005725586694    3.47825658560723   13.64566201251521
H        -2.58599519007022    2.89136958714894   14.51747764797966
H        -3.67888006353916    4.15067274945989   13.96496594968019
C        -1.69388883755195    4.32452433163762   13.14301833180134
H        -2.07617466085542    5.26451672528850   12.73744777194960
H        -1.03417440040378    4.57953770785332   13.98002538869940
C        -0.88440679420190    3.63998610397213   12.06494172264933
H        -0.37762654057379    4.32765096186143   11.38719145331187
C        -0.41898716671500    2.34360312385261   12.13391172877461
H         0.40947567715354    2.06902898158788   11.48110822748042
C        -0.60831903062675    1.45304785503375   13.34210436865613
H        -0.64429732005236    2.07484824333326   14.23809344697746
H         0.25854954897846    0.79645752217404   13.44004906766459
C        -1.87725524080761    0.58630986114908   13.23978904200167
H        -1.62273531371378   -0.36445873771004   12.76401249037476
H        -2.25609624873469    0.35485508645366   14.24210926693047
C        -4.83721692179711    3.89378278111662    9.02805113161851
C        -6.01106617816981    4.33501983958421    8.42458929214483
H        -6.59028025065228    3.64321161529189    7.83477914779255
C        -6.41680398655998    5.64587722791113    8.58669129962249
H        -7.32839596398034    5.98343341553420    8.11660500981660
C        -5.66214700968178    6.52256110104748    9.34789360098834
H        -5.98233172979683    7.54593656481421    9.47335932499835
C        -4.49007852691686    6.08235297176618    9.94132725623116
H        -3.89172517227664    6.76594457526286   10.52487743969653
C        -4.07102462846862    4.77512753116370    9.78380192282415
H        -3.13378549092851    4.43716947099993   10.22779753793096
C        -2.93126772789029   -0.53506417123195    9.50031395927064
C        -3.63583074529900   -1.68802557325269    9.83351397841680
H        -4.71185298740045   -1.71694634121185    9.72911193827388
C        -2.95575217687273   -2.78313951373040   10.33723626908528
H        -3.50388061533872   -3.67527492265238   10.60087284623183
C        -1.58339196695372   -2.72915187281278   10.51540426769758
H        -1.05942607968108   -3.58397663184699   10.91576381824357
C        -0.88668813480929   -1.57867358867388   10.18305232269947
H         0.18323200406183   -1.53621307989551   10.31894288745091
C        -1.55195561111929   -0.47785034686987    9.67118104563001
H        -1.01216301343106    0.41621803794794    9.38644240819615
C        -5.68791076437119   -0.59842728882613    6.17734995998015
C        -6.49376566203804    0.44955246171612    5.74527674187250
H        -6.43543778287847    1.39817469487164    6.25100558706254
C        -7.34353589746321    0.26033411049379    4.67127002229634
H        -7.96465976116694    1.07839806573192    4.33834222010061
C        -7.40295027030081   -0.96129558468134    4.02192997627963
H        -8.06895761560786   -1.10094139003525    3.18427847964724
C        -6.59916135668456   -2.00385698305385    4.45243805997812
H        -6.63542474266858   -2.95984556716826    3.95154206013997
C        -5.74532533070422   -1.82766152336197    5.52382684557775
H        -5.11652710890524   -2.64195051037105    5.85762832218714
N        -4.45567904509877    2.55669280337821    8.86144081774339
N        -5.08446913369588    1.80882779855375    7.90492078008674
N        -3.63052084437495    0.59524099603924    9.02345497069889
N        -4.82251363136860   -0.47762956379796    7.26173562620929
H        -4.23398554685442   -1.27769655932177    7.45260742400222
Cl       -0.95901700959689    2.94301796568855    8.97327425851880
Rh       -2.17473600696103    2.40556341490430   10.86463769244554

