66
CSD_code = SAKPOM | q = 1 | S = 0 | Stoichiometry = C27H29ClN7ORu(1+) | MND = 6
Ru        9.74040867196466   11.71488001792490   11.98139468767362
Cl       10.83971531576908   10.99153912274539   13.95415595688713
C         8.88468451684124    8.17303575185997   11.08806781831575
H         9.70977870937610    8.76300891797171   10.69109138089301
H         8.19811559511056    7.90534766889022   10.28199063545510
H         9.28440243724248    7.25763968133750   11.52513948759583
N         8.88945413644094   12.45532225029272   10.14917764213465
N        11.09621920725947   10.91786764025032   10.72088741967543
C         7.19744820937047    8.46075139487416   12.88460577454925
H         6.81965554979004    7.46415451130782   12.78436901002563
N        10.94443774679071   13.32066241388708   11.73974302564970
C         6.83448108068573    9.44592918516001   13.73478292459392
H         6.05087838830288    9.45081682496697   14.46027984155487
N         8.51499899545569   12.57794321622601   13.22062637097376
N         8.66858011112525   13.87431316185819   13.44556663219696
C         8.48537880805262   10.21726297811392   12.41377349115831
N         7.64661981348758   10.52192205539676   13.45771156738630
C         7.74410242314815   11.80812299360842   13.98615654098612
N         8.20951656961793    8.94567216234803   12.09308195674772
C         7.16498959166338   12.30253884407178   15.19124072859537
C         6.52171524725791   11.53694730141309   16.18121843573253
H         6.45812877595081   10.46753455087880   16.08649659519252
C         6.02570143308254   12.13591269760034   17.31232328373075
H         5.54228694919914   11.53055001756980   18.06379023129617
C         6.14802963781506   13.51338127056733   17.51558682813310
H         5.74058800822652   13.96175945531706   18.40778958164060
C         6.81520582791409   14.28201236084838   16.59522897460374
H         6.96193857982708   15.33974772623086   16.74353316288521
C         7.33679770646033   13.69116917802821   15.43831705460771
C         8.10226405310182   14.43696002008004   14.48129735866685
C         9.08273590215680   16.44147988032526   13.77751761873145
H         9.16858363483937   17.45158991495811   14.17082105512383
H         8.63376260064590   16.46261942419831   12.78179561386638
H        10.06582589298096   15.97048421185209   13.71336955351699
C        12.27888305044978   10.41992339245744   11.09735909130796
H        12.35893924065431   10.14359251234220   12.14229278220934
C        13.33694973312069   10.26507155535382   10.22119883435182
H        14.26918041979178    9.85659629551635   10.57483776882718
C        13.17941500069683   10.64696283430503    8.89719533425899
H        13.98701573487068   10.55162980846003    8.18967108295602
C        11.94913837523969   11.15119836397223    8.49991291021582
H        11.77933768631616   11.44876327448962    7.47685677448890
C        10.93107956160658   11.26532317066252    9.43090626754767
C         9.54413904470183   11.71950126658384    9.05424563149874
H         8.95057939836344   10.81971541774698    8.85228233693316
H         9.58094095114080   12.31740371015329    8.13506347013220
C         7.42505723426516   12.30183369707563   10.08685811418565
H         7.00415763405720   12.80157530919732   10.96499915732645
H         7.20262952952361   11.23400273913700   10.17212146333806
C         6.75673202035793   12.85355780169980    8.82822392024553
H         5.68938782888857   12.65852776510083    8.88669502121498
H         7.13366868503078   12.37289760399044    7.92960763549424
H         6.89213212914739   13.92755805895737    8.73712112347506
C         9.25990754517022   13.87880071871314   10.12195860376062
H         8.54345864897334   14.41719365016730   10.75335697198679
H         9.20912671478830   14.28875320767038    9.10543659857214
C        10.62263172272155   14.11379880893704   10.71271893267618
C        11.45986722795508   15.12595643189051   10.27124156038932
H        11.17113627652246   15.74158063529292    9.43350692341961
C        12.66424817580810   15.33620943173853   10.92580660594169
H        13.33447537669606   16.11661414560066   10.60237616620904
C        12.98032277385178   14.52436996374533   12.00428740846725
H        13.89963960524866   14.65698848588065   12.55068666154878
C        12.09693717701773   13.52504873746092   12.37269118710795
H        12.30396244964252   12.86255400612550   13.20457486668528
O         8.25269292041402   15.74071839663397   14.68518055248591

