100
CSD_code = SAKPIE | q = 0 | S = 0 | Stoichiometry = C55H37O4P3W | MND = 6
W        -2.57476553871102    4.90309774603793    4.35115354578272
P        -2.86245828279723    6.94764291694833    3.08017580287362
P        -5.56185953541590    5.86784847965320    2.78766459663132
P        -0.45979751277360    8.47891044734466    2.36749086425510
O        -2.42764132942150    6.20004634562118    7.20079495879448
O         0.54399504102731    4.89880012847490    4.39822236975355
O        -2.29375073518520    3.24598377152883    1.71613941725087
O        -2.58347036151776    2.13735169130191    5.78720691458672
C        -7.09159410598551    6.72306388963836    3.26986246092638
C        -9.36520747275969    8.00786291888606    4.19281073833019
H       -10.25148333933413    8.50934461067505    4.55251055608784
C        -5.25646421618726    5.82077040397004    5.46550874697093
C        -5.85443063438654    1.35663783843138    4.30786395759802
H        -5.86931558877622    0.46193449557666    3.70179169709137
C        -5.50165284772750    7.65020770469684    6.97890833425543
H        -5.42934137809422    8.70748463687269    7.19366929631564
C        -5.99478369385692    4.73279506510783    1.44502405904579
C         0.96924606455631   12.49978230373402    0.71690548163923
H         1.29175060636409   13.45053476168973    0.32004686383236
C         0.43135386124316   12.42981579575260    1.99191118175030
H         0.33525112531440   13.32477207301362    2.58819372525662
C        -3.82297375300454    9.71119407430910   -0.95760889195233
H        -3.65782024357389   10.42121988740329   -1.75488378237288
C        -6.25049710297910    2.41636800197642    6.43476632408481
H        -6.55890043437009    2.36355546931815    7.46898805908095
C        -2.59205126748639    3.15656692616030    5.26351954717698
C        -0.61220718673198    4.89724646177809    4.39549048429401
C        -6.06727013826222    5.42629607976569    7.72091787036535
H        -6.41850633420959    4.75464033056064    8.49088228921723
C        -7.29794831003508    8.06444768852302    2.97539559543269
H        -6.56456963465574    8.60806405323479    2.39734249623788
C        -5.31177463893779    3.59879768826438   -0.55888955027198
H        -4.56674048758760    3.40727181837491   -1.31671275930853
C        -5.04072080776697    4.49087125678638    0.46137333378928
H        -4.09020328240347    5.00595632352400    0.50152368591440
C         0.14626753972390    5.96546357756865    1.38446855950644
H        -0.92407897758862    5.80494034729843    1.42239048475312
C         0.85806604486673    7.86642624623135    6.18239870833824
H         1.70565014535690    7.40798241877287    6.66867431822491
C        -5.40219731819753    3.68965117340109    4.54090257495830
C        -1.27079492231311    8.96926830677870    6.31282940775394
H        -2.08095860050272    9.37249648019911    6.90147326876731
C        -0.30020078480757    8.46851553435056    4.17194707802161
C        -4.29269156469232    7.89062835570700    1.08403348288330
C         0.14435818512107   10.06334087688175    1.73410002823883
C        -7.49270321172377    3.20307253364960    0.36522961435201
H        -8.44868818024212    2.70199033249255    0.32459611855958
C        -4.34418701647699    6.99585759827546    2.18930190639455
C        -5.28318437549078    8.13570201582817    0.12938015782158
H        -6.22196949621469    7.59875755509016    0.18986220686933
C         2.04121458624578    7.42547874991382    1.69673136034225
H         2.44099775547734    8.39373133589179    1.97045892184813
C         2.36331347513282    5.16575663595903    0.95535959215442
H         3.02862506210634    4.36911171524473    0.65845952061257
C         1.09427034847748   11.35282595967826   -0.05223230552285
H         1.51075891988718   11.41038922529035   -1.04679850916254
C        -9.14937133780094    6.67509109318654    4.50741039098697
H        -9.86222086408265    6.13955043644351    5.11685875579602
C        -5.04427298971631    9.03775983940678   -0.88060735873709
H        -5.80462070862256    9.22847589530064   -1.62371874470152
C        -2.82401258407473    9.47309136874819   -0.04082541469149
H        -1.87666984044259    9.98906108643149   -0.11510975570055
C        -2.13623441187875    8.13823072646129    2.01919076369394
C        -3.03345682158876    8.55199198196464    0.98601088985044
C         0.66645834285147    7.20201483079471    1.74348790962317
C         2.88384786390543    6.40426785030071    1.30007335759322
H         3.95050070284009    6.57106827585581    1.26781197824284
C         0.99625678247305    4.94731621378360    0.99315951046873
H         0.58945087562578    3.98321357473265    0.72946392144720
C         0.80412698486213    7.90590266829794    4.79990370776031
H         1.60399412940161    7.47491036691616    4.21607959139655
C        -0.17617194082084    8.39210655742349    6.93772690313095
H        -0.13767420484059    8.34227435381778    8.01508768753023
C        -1.33710620200237    9.00646526883530    4.93358532443734
H        -2.19642296741098    9.44418890048332    4.44023681966263
C         0.01545942243608   11.21353483234406    2.50387709684936
H        -0.40251580537728   11.14876808824364    3.49903662231448
C         0.68235595684919   10.13327246055534    0.45170046701197
H         0.77095173629562    9.23265874045578   -0.14139879206400
C        -8.43801127181980    8.70122481006499    3.43351671785554
H        -8.59861038160422    9.74435519336415    3.20296024267290
C        -8.01301509912869    6.03319452040469    4.05501448372200
H        -7.82295855237319    5.00376098820258    4.32955196197897
C        -7.22796298749049    4.09184212360944    1.39069647695608
H        -7.97540811866703    4.28777320607744    2.14528139156733
C        -6.53554314418430    2.95095106896821   -0.60494148499126
H        -6.74587497195321    2.25072390850363   -1.39972710391961
C        -4.91612352330578    5.05324891225664    4.24451130970316
C        -5.15713515187155    7.18214116159374    5.72613774790806
H        -4.80522613198011    7.86738323070882    4.95969201832424
C        -5.94369616821930    6.77933275660944    7.97063802848388
H        -6.19731930605108    7.17160166623610    8.94506700020655
C        -5.74298312327869    4.94327053489071    6.46026471900125
C        -5.83018605707243    3.62142014290514    5.88849272981696
C        -6.26678772704365    1.29031845896431    5.63548665643919
H        -6.59402384795235    0.34487618294896    6.04335562313351
C        -5.41436413106543    2.54355605442826    3.75449693856163
H        -5.06941207361010    2.57056070099484    2.72907692125180
C        -2.48270026801151    3.89114124331683    2.64878671786281
C        -2.55737419994868    5.78253666490353    6.14237250517367

