77
CSD_code = SAKSOP | q = 0 | S = 0 | Stoichiometry = C28H43NiO2P3 | MND = 4
Ni       -0.31446617355262    5.10987006276215    2.93228456887640
P         1.41654655789127    4.75373977328320    1.56965185227192
P        -1.67986970108579    3.34032377873804    3.15757429929949
P         0.87240391119235    4.29688509619546    4.56179787635591
C        -1.04896094364693    6.71612366335112    2.74751163520192
O        -1.46563847759006    7.75163184970243    2.45990757062654
O         1.72990753451165    4.93551592071620    5.77980567521938
C         1.28976626257835    6.17818969924418    6.33246555822354
H         0.97919420345518    6.83775234337830    5.50652455071129
C         2.47655321047600    6.78941139957950    7.06284906357928
H         2.78544183673588    6.13882742877525    7.87753233529931
H         2.20575669126096    7.76097866060127    7.46606634945550
H         3.31180386870722    6.90930262745373    6.37774210382711
C         0.09238218455084    5.96289542366611    7.24857398513535
H        -0.72543381441534    5.52890125452840    6.67382205386994
H        -0.23375402822290    6.91132047028819    7.66675888506250
H         0.34966691285683    5.28383042424268    8.05817218856904
C        -3.49617241240447    3.73068360053526    3.29517241381664
H        -4.06717466283969    2.82580945482076    3.52360751206361
C         3.66764913027022    3.03596484277397    1.88953666299789
H         3.92899797623371    3.26042788504572    0.86476653978205
C         3.06898994023416    2.51459050313168    4.54752366206059
H         2.84484638004999    2.33149906482805    5.58717017555531
C        -1.80218818349823    1.25172709389228    6.72419988056541
H        -2.47044105291795    0.57908573273331    7.24302214817150
C        -0.59394642944590    1.60832229411795    7.30102033176124
H        -0.31644022645215    1.20947878464636    8.26633677838289
C         2.53930426141902    3.61043623805277    2.46253986463660
C         2.25492230437911    3.35893941396670    3.80822682248929
C         4.47177743223524    2.18700065537241    2.63011708769718
H         5.34357089517620    1.73939957360461    2.17442518569059
C        -1.63516238796738    1.77695559011443    2.11610085130154
H        -1.60882552379767    2.15593913714484    1.08481620171439
C        -0.10764880597846    3.00021043129020    5.40395856653311
C        -2.16562086812879    1.76567414968788    5.49140087351016
H        -3.12725149728549    1.50285923088259    5.07654229972449
C        -1.32005972202225    2.63487298123916    4.81187508031406
C        -3.94760701488975    4.31065710499920    1.95903352311859
H        -4.98183230973528    4.64759135129219    2.01109710115002
H        -3.86323968554916    3.57442127114033    1.16088257135265
H        -3.31731180489918    5.16404149115081    1.70361171570866
C         4.16708654595042    1.91666285545632    3.95453238268728
H         4.79548007900237    1.25049380272422    4.52797077300059
C        -3.68046353435424    4.74514178963051    4.41822450093878
H        -3.01141451226582    5.59357498573340    4.25906637286822
H        -3.44686498469611    4.30286273977089    5.38588306636904
H        -4.70527036420584    5.11229446209290    4.44149550086700
C         0.24355986066220    2.49357205579205    6.64776271364840
H         1.16602139210709    2.81423864084481    7.11085180608674
C         2.64168427588621    6.16559418559380    1.44795043754096
H         3.57882201373146    5.75384793019727    1.04996043930621
C         1.28266271443390    2.63475368892522   -0.33573268698073
H         0.32717065846264    2.30403903240760    0.06001232728986
H         2.07329284032402    2.10785545465120    0.19232555500541
H         1.32830185690883    2.35525884739920   -1.38822850045362
C         1.40050943236863    4.14927214518293   -0.20336263348759
H         2.31924301618790    4.49118707119496   -0.69547964306401
C         2.87984972234251    6.70897220779094    2.85216973433080
H         3.58179948129573    7.54182661777421    2.82940982953980
H         3.27789886197136    5.93862916355364    3.51217869874620
H         1.93408259693741    7.06381748283382    3.26632327183583
C         2.13936922100786    7.28129497387496    0.53927483530417
H         1.13195886430590    7.57491852213804    0.83245606285062
H         2.13018134085963    6.97603534928323   -0.50430022408245
H         2.78677635708078    8.15305041876141    0.62794132351066
C         0.18082396208920    4.79464514122201   -0.86159674705413
H         0.06770214243540    4.44994208008987   -1.88870219318084
H         0.24970600821911    5.87907944333428   -0.86617126277033
H        -0.71489606203942    4.52386422561368   -0.29984160818253
C        -0.31775976797216    1.06344492026696    2.41367973021629
H        -0.36376681840725    0.57328122975721    3.38520704903647
H         0.50826210089674    1.77529271539292    2.43456744150916
H        -0.10430586534363    0.30786015411878    1.65862846931398
C        -2.79949360496831    0.80010876045704    2.22702558172747
H        -2.63348170743382   -0.02366569498865    1.53250754836112
H        -3.74787692267381    1.26460170433573    1.96965729021070
H        -2.86628696899234    0.37926314381769    3.22662835547057

