77
CSD_code = SAKSIJ | q = 0 | S = 0 | Stoichiometry = C28H43NiO2P3 | MND = 4
Ni       13.91600108283631    3.11732087558937    0.43941909618162
P        12.81418537424509    1.71809168216309    1.69732506275577
P        14.03823007909956    1.54946276915167   -1.06290270593655
P        12.93602387771605    4.73464821483418    1.49234505220574
O        15.39085375842923    5.08948656976621   -1.12342449292113
O        16.11804407934812    3.75562760613465    0.54866882204382
C        15.17459799921711    4.23301592754453   -0.29687063800207
C        17.46569942539977    4.26287325452826    0.45184587386181
H        17.39589093627306    5.29637802819784    0.08363119194046
C        18.07757209687728    4.22473144339115    1.84390051596867
H        17.50914471830059    4.84781929002018    2.52975944107495
H        19.10148682409375    4.58707283930426    1.80702952410798
H        18.07561321690273    3.20399170860559    2.21934391142617
C        18.25871219517467    3.42737215963498   -0.54638738201737
H        18.32096152255254    2.39637771496032   -0.20449075633457
H        19.26416443531212    3.82784666104833   -0.64729006264843
H        17.77460173855559    3.45425190797031   -1.52029732182144
C        12.17781835095665    0.41078331765237    0.60402638140855
C        12.72840248029879    0.32846506901914   -0.68922534416910
C        12.32611322121711   -0.67894027750458   -1.55368150207587
H        12.72653707731026   -0.73631000747835   -2.55516232346446
C        11.38616996418633   -1.61384461708158   -1.15267727965667
H        11.06089588624623   -2.38093028791894   -1.84021618424669
C        10.88503031039787   -1.57377249885253    0.13806742231881
H        10.18144601844857   -2.32538451046077    0.46700436409610
C        11.29151260597443   -0.58392318268337    1.01225440530322
H        10.93095690054462   -0.59809562151142    2.02913523090378
C        11.38749579704308    2.62926450331429    2.34103692972722
C        11.55842770377683    4.02506260884385    2.45075974631307
C        10.67535610775786    4.78755143832736    3.20054932510565
H        10.84498797964032    5.84631376373072    3.33316324602034
C         9.56020016358981    4.20149986239770    3.77329004966881
H         8.86177089474040    4.80126348073418    4.33837059112017
C         9.33830299052242    2.84323062928234    3.60165416790502
H         8.45716526990104    2.38528947658956    4.02867285516380
C        10.25139168217408    2.06284893858423    2.92141146516479
H        10.07524858436211    1.00250225533518    2.84362102293324
C        12.67240743956997    2.52776132984282   -3.23960632575160
H        12.75514219461809    3.55018749566646   -2.87527730859153
H        11.80783507829578    2.05602475835888   -2.77209831465996
H        12.50994879920678    2.55934518274932   -4.31592531598875
C        13.95231196752430    1.76622593932015   -2.90996771902725
H        13.91274808101561    0.77278975678300   -3.37004012926388
C        15.16960053102093    2.51524838592591   -3.44169095257970
H        15.04256788533781    2.71774391053586   -4.50443287001870
H        16.08230277684688    1.93563297287230   -3.31665402105911
H        15.28136732671978    3.46844655008608   -2.92853659447727
C        15.62982414281616   -0.78114922987350   -1.55696657563526
H        16.57368153451370   -1.28533167998323   -1.35198077194677
H        15.55074465175454   -0.64455988465006   -2.63315282539301
H        14.82143682235992   -1.42931231297925   -1.22435513165568
C        15.59366532087536    0.54880485776481   -0.81443519171826
H        16.40159467161316    1.19212985148415   -1.18448563676069
C        15.78845144705620    0.34531968810644    0.68567869407355
H        15.00320227619372   -0.29422800223792    1.08938958578658
H        15.74885313736107    1.30681921625743    1.20457376927597
H        16.75146835327235   -0.12148441843319    0.89061756523773
C        11.24235729959284    4.88839543178814   -0.60553845259004
H        10.35497882985757    4.57833254021459   -0.05464788520087
H        11.82426209869497    3.98947498689693   -0.84500596641428
H        10.93030594587989    5.36322831991229   -1.53366823930513
C        12.09588185183706    5.83007500866353    0.24264736581649
H        12.92203122229518    6.20843396618994   -0.37513383148936
C        11.27779754758982    7.00110762081174    0.76928448440832
H        10.95476549425457    7.61865098124358   -0.06816924142111
H        11.85545899582857    7.62741937837066    1.44579955608827
H        10.38835482081979    6.64844877291505    1.28589589066149
C        14.47206704062603    4.88671013416330    3.70670955545808
H        15.13237023776708    4.20991323150485    3.16147369873721
H        13.73696027580680    4.28192488241701    4.23724474199960
H        15.06081383237957    5.43991344628244    4.43715225014977
C        13.77818765408656    5.83133770061953    2.72658035868350
H        13.01367998408190    6.41204547290572    3.25617717385166
C        14.76804628721785    6.77883072289439    2.06019222940273
H        15.30019000523633    7.35857705995162    2.81412610966717
H        14.26440651395726    7.47046020690841    1.38804930393318
H        15.49891627461271    6.22036277472599    1.48161726623978

