100
CSD_code = SAKVEI | q = 0 | S = 0 | Stoichiometry = C32H64NP2Y | MND = 5
C        -2.76457620266778    6.55663546969968    1.99203551347982
H        -2.86344202937063    6.96862619269377    0.97362679877690
H        -1.80734615055175    6.00799387790960    1.97435461158983
C        -3.87043815579642    5.49501184356569    2.13847663448510
C        -5.25524743483450    6.14469837019014    2.04305565091155
H        -5.39386765203902    6.88061417970588    2.83707410139329
H        -6.03929295031584    5.39394343152547    2.13154543417129
H        -5.37190548708149    6.64502801268941    1.08283363725091
C        -3.73970621812460    4.75522984071482    3.47555915433182
H        -3.68519963624087    5.46075500764218    4.30919550724485
H        -2.83824071717358    4.14530432663009    3.48258459424240
H        -4.59174886131685    4.09612769586105    3.63537456889783
C        -3.75632759762823    4.45749902309079    1.00711410034940
H        -4.52068018608078    3.68859999662137    1.10871826907121
H        -2.78149794348393    3.97432513540527    1.02690503841631
H        -3.87928716609723    4.93494562600527    0.03704034988821
C        -3.63139585576875    9.14916683587783    5.57719861332922
H        -3.11702681041004    8.70692215789228    6.44943265115162
H        -3.43390251203855   10.23354214928117    5.65899899127079
C        -5.13961692010319    8.97811697729318    5.84214114412472
C        -5.96504555720172    9.54536390295493    4.68189736931653
H        -5.70075746985534    9.05400439742315    3.74214773341194
H        -5.78205987216271   10.61313074930452    4.57518657756798
H        -7.02960638973152    9.39944977974198    4.85981251068978
C        -5.53480882955281    9.73352981721809    7.12368485627570
H        -6.59565956316965    9.61066937152360    7.33577564082539
H        -5.32959650790235   10.79758590972854    7.02154670488833
H        -4.97132793557822    9.35858847714253    7.97573621192772
C        -5.48537723681841    7.49882547639661    6.03738809200988
H        -4.92734858064599    7.08607771188550    6.87608182999516
H        -5.24046084496367    6.92382379978937    5.14536623659638
H        -6.54747300979824    7.37611752641814    6.24300056767460
C        -1.50212003822696   10.97006745922037    1.11747034653204
H        -1.73926479318735   10.25683841139378    0.31753288015149
H        -1.22096882326066   11.92153693424244    0.65777645212833
C        -0.35530130461783   10.42610764333699    1.91038003496666
C         0.95043309559495   10.87244789906643    1.93207922829978
H         1.34406405889684   11.73896082474813    1.43095768044231
C         1.66995315169387    9.95953913343549    2.72400378783142
H         2.72163325933889    9.99294615734312    2.94697760741270
C         0.76375930787692    9.00591144052611    3.14036565370686
C         1.00407360206456    7.75658530562214    3.92900368152603
H         2.05585608673805    7.66934476537651    4.20970308236941
H         0.73397695371125    6.89817136730122    3.30364050533463
C        -2.83993671525785   12.87742616730442    2.89127923900296
C        -1.53380642340348   12.76330708072296    3.68257528351434
H        -1.41491069212560   13.62463467352796    4.33931242327092
H        -0.66962213094525   12.71294200056736    3.02548767015276
H        -1.54408156851433   11.86231828851676    4.29851505276674
C        -3.97414633005602   13.10088031660793    3.89486966526269
H        -3.76928282203906   13.98843020871541    4.49330651432033
H        -4.05156280699689   12.24811265462922    4.56796840036814
H        -4.93219542905345   13.24297689793028    3.40389379495970
C        -2.75572953745860   14.05924235422293    1.93156580111518
H        -3.71144946077634   14.25337646752666    1.45089776980191
H        -1.99768154974715   13.90265503789773    1.16746955044237
H        -2.47933437775546   14.95294289391729    2.49133674288393
C        -4.34645718647964   11.23237355267791    0.69390340913085
C        -3.90074636914432   11.96022195467686   -0.57326933285573
H        -4.71740694645887   11.94615592841397   -1.29563117329292
H        -3.04422019711557   11.47666473181782   -1.03530514316875
H        -3.64838407894169   12.99739909184994   -0.37736987234046
C        -5.65532938659136   11.83661863332099    1.20130855657158
H        -5.57766575465156   12.91502857607916    1.31248570412919
H        -5.93551124215686   11.39894014286508    2.15784396404511
H        -6.45608737268027   11.63459733744508    0.48984049353540
C        -4.60478441924005    9.75705675632700    0.36198661999240
H        -4.99528227377567    9.23312218117515    1.23671134857914
H        -3.69207271513170    9.25521484936306    0.04003517351568
H        -5.33511909943721    9.67247928683937   -0.44253369423363
C         0.20779299586736    5.91115382701255    6.06464697970148
C        -0.05428210955748    4.97427479496198    4.87946310273229
H         0.80166705058587    4.92904460988833    4.20971067734390
H        -0.93037610785839    5.30552961096333    4.31738760447763
H        -0.24464317709472    3.96380138526696    5.24040926529380
C        -0.86708587503781    5.63114244025094    7.11886129701566
H        -1.85398171899467    5.85997888264584    6.71360521370300
H        -0.71754626152525    6.22343531529829    8.01612644754638
H        -0.84955878779957    4.57983065745159    7.40490323156799
C         1.59816207499736    5.63242126978617    6.62402408986795
H         1.68968497739186    4.56953493028704    6.84936495583377
H         1.77953483617058    6.18219903336019    7.54361738938296
H         2.36939554591036    5.88726458138655    5.89990593269643
C         0.69327985323197    8.96622078190519    6.56899738406064
C         0.10535872674019   10.29770470388140    6.08647448525461
H        -0.98208563867552   10.28482867702868    6.17004731235871
H         0.38101995088101   10.48539218650067    5.04979235418900
H         0.48623327292290   11.11923609465854    6.69291607168837
C         2.21575795358187    9.05382010815412    6.50136585043195
H         2.56037889083493    9.78225984874095    7.23529083515686
H         2.53792364617548    9.39595972067236    5.52182091077631
H         2.69465937345734    8.10486638353150    6.72325747406049
C         0.23713993273627    8.74200010671433    8.01088125195157
H         0.73038740410224    7.88472895244226    8.46199284145575
H        -0.84126912162793    8.59471712135293    8.05192291133733
H         0.47987649947797    9.61804784400312    8.61224041285771
N        -0.48113790956537    9.28409391697347    2.64710175696078
P        -3.06619296791130   11.15343589618601    2.10993542690946
P        -0.11411404272624    7.67929546443323    5.41565049798208
Y        -2.49609865288081    8.42395237787951    3.54832143769831

