75
CSD_code = SAKVAE | q = 0 | S = 0 | Stoichiometry = C23H49O2Y | MND = 5
C         0.52378143290998    7.88401773212494    4.31611205633844
H        -0.49676714129299    7.67376917993386    3.95291460698711
H         0.38783153605652    8.49667476987251    5.22375860267561
C         1.19831242528966    8.78033610898667    3.26589134609703
C         1.34932285784557    8.03098891458285    1.93687090675342
H         1.80711078607046    8.67195833044841    1.18364429222229
H         0.37365760029482    7.71692471080383    1.56864601462288
H         1.97331426741792    7.14410944618054    2.06518710637467
C         0.34887482083804   10.04005427210986    3.01425067167139
H         0.81895183545615   10.68828043600749    2.27531716756776
H         0.22421186938488   10.60746110501545    3.93489783066628
H        -0.63928017734812    9.76688992775135    2.64872017663006
C         2.58250734700535    9.22561891936993    3.75133605887699
H         3.21674176089222    8.35793502842411    3.94234826063538
H         2.49163400165320    9.79958290296072    4.67208428486031
H         3.06872478953236    9.85434076049467    3.00568256657579
C         3.76072199007762    5.25305188657774    3.82382987428571
H         3.63320335996471    5.13843119165743    2.73143813647160
H         4.45283118912111    6.11012704328340    3.91944578459716
C         4.56285555076288    4.01948047056763    4.28563666443374
C         5.89142110316133    3.91784661189939    3.51363969611520
H         6.46198838880984    3.04549330898415    3.83057798828160
H         6.50091643567800    4.80355466862525    3.68328124975367
H         5.70663708892153    3.83441569082744    2.44413675456738
C         4.89335298636155    4.12245540813618    5.77996778581426
H         3.98743253901527    4.27528572441976    6.37219826765098
H         5.56025511895008    4.96437602929471    5.95947856461859
H         5.38999728303911    3.21755164212704    6.12908770392153
C         3.76904376639092    2.73414993260994    4.02272046002680
H         2.78473897085980    2.78168605971186    4.49289627408760
H         4.29799625957332    1.86551208958262    4.41351526006881
H         3.62999246014431    2.58878705915585    2.95187866284084
C         0.03107762270770    4.89105060536583    6.55072022954629
H         0.22453896378278    5.35737415224300    7.53281757629849
H        -0.98256720205940    5.23562297328162    6.27716099530409
C        -0.08550849168167    3.37848692992063    6.81603185098964
C         1.23015646269509    2.82921996359300    7.37742085990057
H         2.04184157527771    2.96238523115080    6.66218127009878
H         1.14107180783464    1.76647370472092    7.60110661387937
H         1.49554394753649    3.34915362155834    8.29674647607031
C        -1.19370925010151    3.10207769381959    7.84882576303826
H        -0.96754676757579    3.59781624690219    8.79101025378145
H        -1.29284637149362    2.03399874714491    8.04064522964942
H        -2.15207185778385    3.47478827997010    7.49137935117312
C        -0.44048156727213    2.62824901600085    5.52684958498706
H        -1.42228639263669    2.93882404556043    5.17261574955746
H        -0.46664884979145    1.55258253700533    5.70097087642858
H         0.29110168149019    2.83772896018719    4.74322861498033
C        -1.17075216280448    4.76126652661452    2.46791886601889
H        -1.40310568997581    5.57629832327148    1.76768057822194
H        -1.62164710823887    4.97991755943575    3.43637391268520
C        -1.60012615074080    3.40716105154836    1.87531931308010
H        -2.33633725127325    3.54335499101527    1.08583213794533
H        -2.03318590385169    2.76772704991012    2.64144410140862
C        -0.28585773368956    2.81105349498545    1.34332647304567
H        -0.35404062994055    2.51110280704625    0.30022516886763
H         0.00925434607963    1.94598572860850    1.93517532485446
C         0.71854816564182    3.95269731916174    1.54119387524075
H         1.72805084972423    3.61580233532610    1.77439034027476
H         0.74495096093708    4.60211140764167    0.65391241906578
C         2.20188084814206    7.89273408177919    8.03389986242463
H         2.44112749007515    7.46286126997214    9.01800902853779
H         1.13487992815521    7.78547881513601    7.83795411603322
C         2.70571406113233    9.33658990123139    7.94135404193610
H         2.64941223829123    9.84814824403262    8.89935760246052
H         2.11030423979538    9.88911967795877    7.21593019499228
C         4.14967806946192    9.16747312792959    7.44095439680511
H         4.87805520673130    9.43531532326618    8.20409618564776
H         4.33409222641884    9.78061844245175    6.56128427151963
C         4.24134069843710    7.66931418628880    7.09661588130669
H         4.71784050390271    7.47252828336203    6.13638534238487
H         4.78045635946144    7.12610117619677    7.88610557637599
O         0.23419706246702    4.68496189900036    2.65487484216156
O         2.90661850671697    7.19023923808368    7.02313832866731
Y         1.60107105523426    5.79435766796788    4.89644544529675

