91
CSD_code = SAKWOS | q = 0 | S = 0 | Stoichiometry = C22H60FeN2P2Si4 | MND = 4
Fe       11.94864643436790    5.74298379730478    2.10387780731957
N        12.92353585278964    7.30064510957815    2.45695270832756
N        11.65673256603480    4.22763872374048    1.06141691083231
Si       12.57447058800294    8.93660973989263    2.04049170221001
Si       14.50617632147404    6.60281820578110    2.39960124557954
Si       11.28592712905721    4.64432457671997   -0.57881376504760
Si       12.19302128045595    2.64773430932556    1.50727358341281
P         9.17418384541013    5.92302465296882    2.52147409245892
P        11.43100771047220    5.73174818987871    4.93756613463057
C        10.67722534926491    9.12360052951017    1.97795948441691
H        10.30982264481914    9.15657529608980    0.95947994295525
H        10.34402531850419   10.02793328496571    2.47608839020526
H        10.21905790418803    8.27141606727734    2.47073826514403
C        13.20648902945730   10.18591974335416    3.35154053512743
H        12.64954894123425   10.12245408981073    4.27940621061340
H        13.10181938083210   11.20078228766488    2.97952782253573
H        14.25280095691991   10.02972499599901    3.58462771929612
C        13.33333768792741    9.53393483232464    0.38582219599210
H        12.87860934581524    9.05417798671353   -0.47352263575745
H        14.39780203236747    9.32572433204048    0.35408026848408
H        13.20574809964651   10.60549009126555    0.26592280550175
C        15.93650604614743    7.78011451065247    2.87435471978648
H        15.87150458780751    8.10516037966948    3.90681212595174
H        15.94007075711577    8.66477155049773    2.24847741825361
H        16.89272547118940    7.28320269937163    2.74816853742103
C        14.83544343814040    5.92849904292311    0.64117840922057
H        14.06035857709055    5.20691033868936    0.40163048723203
H        15.79870920434926    5.43488425489853    0.56448129963879
H        14.81017832197598    6.71331779559027   -0.10700788175337
C        14.53528995236638    5.10388106985887    3.57300279068005
H        13.68641753548464    4.46599021788927    3.35673346471407
H        14.48042091604577    5.40370480018482    4.61168058355907
H        15.44127852243927    4.52161138553713    3.44859063801164
C        11.26531673071729    6.54333770507441   -0.54000349836656
H        12.23828237577824    6.90991438902655   -0.23413446251417
H        10.55129415117177    6.89250696259668    0.19627062537735
H        11.01667678171862    6.98417501023853   -1.49843536975629
C        12.57876081304440    4.03365291115513   -1.85422713860755
H        13.58482104366459    4.36049701339444   -1.61925901856162
H        12.33928866437008    4.40302509322695   -2.84655658951027
H        12.58754333839542    2.94993880693065   -1.90406129497973
C         9.63306102922406    3.96688628543089   -1.27507851256310
H         8.76736442271323    4.44404583878943   -0.83348954525511
H         9.54521425701371    2.89890032741132   -1.11132839908765
H         9.58468925931460    4.13695215310109   -2.34643654932882
C        14.02982986337821    2.28375845643452    1.11492445815263
H        14.68702912885562    3.01305837592847    1.57340692357446
H        14.21275691566293    2.30214184362329    0.04610524913404
H        14.31676275764892    1.30176894958194    1.47941763644199
C        11.17337296768361    1.26994273727196    0.65770786722694
H        10.11119238406924    1.38128162832709    0.84869949608401
H        11.47185686213935    0.29175690938028    1.02157684640976
H        11.31921466507047    1.27855248319286   -0.41653449685813
C        11.91185750479325    2.47114441569195    3.38853070311698
H        12.82154814295570    2.18600909102057    3.90426814343968
H        11.16068938854467    1.72237116927375    3.61769910512196
H        11.58030322097484    3.42374482950321    3.79306944753048
C         8.75509085551180    6.30435891210002    4.30198161148717
H         8.92806946447588    7.37531449474232    4.44093168797784
H         7.69312288506931    6.11939982414721    4.48955748296830
C         9.60906771970841    5.51795862758373    5.28181961312048
H         9.38910234718318    4.45028883903591    5.19625876458210
H         9.37645648117226    5.82947291033680    6.30420006693353
C         8.57261633965300    4.16027500849376    2.40702060060123
H         8.67139464100369    3.89171387571664    1.35449904478574
H         9.32016503116808    3.56504322473717    2.93544738275587
C         7.17483218610184    3.81320292862541    2.90571659617338
H         6.98802379613918    2.75134652568519    2.75106479416054
H         6.40966205748698    4.36620806764446    2.36677411337880
H         7.06462124600384    4.01668009360857    3.96824274759216
C         7.69963420478080    6.85911997188451    1.83690949107949
H         6.80657353783223    6.62111006293042    2.42030589489612
H         7.92001372065256    7.91812747312993    1.99496524534916
C         7.42766951505537    6.62232334817752    0.35909404927755
H         6.62887801228748    7.27831816145598    0.01438696757779
H         7.11675388579799    5.59526799526318    0.18241938580169
H         8.31525414244265    6.82237576973291   -0.23516940888293
C        11.62420178878273    7.42820096761353    5.68658741702848
H        11.23029302764476    8.12978470629224    4.94840512620150
H        11.02620788553114    7.51165401381359    6.59875203074784
C        13.08066733478770    7.77533539256637    5.95755784210471
H        13.16270566571165    8.78146585905082    6.36632380121284
H        13.63897099326264    7.73185200904194    5.02693246072703
H        13.52768710752715    7.08619348490108    6.67062938502030
C        12.06701389450049    4.66007747026339    6.34052851290834
H        11.76258641900705    3.63977502675335    6.09395602097487
H        13.15695133414216    4.68273499923650    6.27580801956070
C        11.64162755471439    4.97356909569265    7.77070741378853
H        12.12225190985315    4.27139816212758    8.45091930505167
H        10.56707304989018    4.87345132148665    7.89905069122620
H        11.93504154700167    5.97682910257700    8.06637019865786

