58
CSD_code = SAKWUW | q = 0 | S = 0 | Stoichiometry = C16H36ClP4Rh | MND = 5
Rh        2.28836126230733    3.16501862982442    1.83711432947674
P         1.20464097532927    3.16497376059001    3.83154422442110
P         4.16166362003929    3.16503526061029    4.58238315155041
P         2.09520065369730    0.89112187143568    1.78696820957000
Cl        0.78102596121823    3.16490716541618    0.02209910508221
C         2.41111657257629    3.16500041909790    5.02234479005593
C         2.06298788774714    3.16500257096356    6.49694664423691
C         2.66744250006799    4.41463132027194    7.14509476626105
C         0.55061396661866    3.16491918372673    6.71302120746781
C         4.00020612766435    3.16498303288399    2.89051045604771
C         5.27143551298732    3.16500482765370    2.05193256008334
C         6.10688200288947    1.91874826092003    2.37344136740161
C         4.95784311956439    3.16502687437828    0.54675527643502
C         0.34688639169498    0.36186836859865    1.83604070542037
C         2.68235038519787   -0.01189709779038    0.30338830923897
C         2.78063089031156   -0.12740095886320    3.14877205544512
H         2.46780941027164    4.42224201974267    8.21480541892304
H         3.74470202306567    4.43402386048793    6.98934685874311
H         2.23817364350822    5.31300547916538    6.70536683337558
H         0.10153735325235    2.28268316537633    6.25970037937472
H         0.32088539123956    3.16490465859184    7.77671155810021
H         6.34271118979781    1.88786787536126    3.43581994483589
H         7.03748642277236    1.92935232630169    1.80764349422804
H         5.55660036565808    1.01592544188819    2.11328636648286
H         4.39180980995651    2.27501334521967    0.26000647637299
H         5.88567028014971    3.16504873256660   -0.02516915540897
H         0.28120807878925   -0.72521565787023    1.79114492134618
H        -0.11034866232022    0.72612925761179    2.75616714018904
H        -0.17460195462176    0.80377278203851    0.98867059024423
H         3.77076867757373   -0.00695736045148    0.25756589188568
H         2.28211929304955    0.48229999436255   -0.58175421728562
H         2.32850172803725   -1.04232592007507    0.33653744896594
H         2.51374601792424   -1.17409451919294    3.00793833046148
H         2.36890394871540    0.23537686739593    4.08976212926985
H         3.86244887159083   -0.02700491830829    3.19120730258864
P         2.09528703551529    5.43889563612333    1.78695398942930
C         2.66758848199022    1.91544499174198    7.14509614382838
H         0.10143858645130    4.04710636467595    6.25970378136086
C         6.10693042091476    4.41122647565770    2.37346186732648
H         4.39178804357618    4.05503759894181    0.26003928056858
C         0.34696442955270    5.96809989498995    1.83612426605733
C         2.68233769892993    6.34193334399749    0.30334612905592
C         2.78077636782456    6.45747185744601    3.14869015866560
H         2.46794244139818    1.90780774366737    8.21480305271388
H         3.74485255306411    1.89618141748155    6.98936382997975
H         2.23843662520898    1.01701784169392    6.70536175185360
H         6.34273247652594    4.44210109976194    3.43584566828202
H         7.03755256019152    4.40058543809575    1.80769337307199
H         5.55669722551238    5.31407339265982    2.11328980382366
H         0.28120676196747    7.05517605378869    1.79115881323128
H        -0.11018022688753    5.60386320438992    2.75630675529855
H        -0.17455148843601    5.52609500684963    0.98882192129549
H         3.77075408148175    6.33701988298350    0.25746632860682
H         2.28207132913393    5.84772479322839   -0.58177266356171
H         2.32846779334657    7.37235629485793    0.33651697869533
H         2.51388954786943    7.50416183416428    3.00781666805356
H         2.36910089428365    6.09474721869468    4.08972141077420
H         3.86259664226290    6.35708169415859    3.19107582069038

