59
CSD_code = SAKWIK | q = 0 | S = 0 | Stoichiometry = C26H26BFeNO4 | MND = 6
Fe        0.53077059652174   11.67455631312719    3.85548670939555
C         0.21700228865542   13.39615409522425    3.64610570142573
O        -0.03500228049203   14.48179157156417    3.37771891317073
C         1.03811729126084   10.00912276979897    3.60746984040886
O         1.34937540759787    8.95229343865060    3.27443190560175
C        -1.02919511363358   11.33553563830020    4.69032867977677
O        -2.02890703795447   11.11820336696469    5.19580935581948
C         0.43248138511085   11.61272201526877    2.09850496513603
O         0.31386925252842   11.54606408055881    0.95640510340911
N         3.85784239658235   12.02696383157940    4.38009632441397
C         4.35273244865697   12.22319817433157    2.99190224949200
C         5.80485719093247   12.72433931134952    2.91279314137071
C         6.74609337462163   11.99157807693714    3.84645624713078
C         6.23096176671063   12.23958389557562    5.24985322463651
C         4.81254778545924   11.69725067386083    5.48086344351935
C         4.34640423358179   12.30919587167044    6.80991838091581
C         4.85907789604829   10.17142308298785    5.64072272099963
C         3.51173619939488   13.31223034429645    2.30845720987012
C         4.22187605173235   10.91883846823142    2.19568436772828
B         2.51293213807384   11.91369544258450    4.64752340195345
C         1.53326961811766   11.93697923132608    5.78677413590471
C         1.25674696523791   13.20175654581234    6.50073675321362
C         1.51347530378536   14.51352224330129    6.12675455156282
C         1.19522159786041   15.53773558090619    7.00050822957344
C         0.63599428156350   15.26970296244824    8.24475700795878
C         0.41542689827230   13.96660933799239    8.65056908576335
C         0.73810130510171   12.93359098727884    7.78382349107543
C         0.68876360638616   11.49983677230849    7.95444467230509
C         0.29824744123823   10.73165900816691    9.04031802088454
C         0.40147503277248    9.35556451619814    8.95718313411085
C         0.89502944200460    8.75567480985845    7.80522036524249
C         1.28017057480288    9.51408296781790    6.71364309965309
C         1.17247425346507   10.89685352225683    6.77198131638618
H         3.52089793026135   11.75688730202295    7.24297622833107
H         4.04080828210850   13.34266072020099    6.67168303003600
H         5.16971683268660   12.28600631364147    7.52001395897940
H         5.25292051081866    9.68590064028217    4.75253156997466
H         3.85851669726680    9.79117246977360    5.82572295848327
H         5.48988922546878    9.90528630199236    6.48548825179096
H         2.51536610741637   12.95681413998839    2.07094779575225
H         3.99377341936800   13.61931196972231    1.38345462780979
H         3.42378674369327   14.18156226444928    2.95586300793003
H         4.89476296399152   10.15346538545231    2.57146712951008
H         4.45787408882331   11.09756504850073    1.14954080305765
H         3.20508958810838   10.54214661969093    2.25675417742131
H         1.96298018271783   14.73566265534806    5.16863646366129
H         1.38511811082174   16.56204179230627    6.71344883857087
H         0.38742919422858   16.08862068766320    8.90390559007892
H         0.00829816858811   13.75616089028772    9.62864318976361
H        -0.07445722681374   11.20269506459041    9.93800537641160
H         0.10135237433394    8.73989865273248    9.79239896623089
H         0.97671058008611    7.67928831251225    7.75879277237060
H         1.65067021244693    9.02043618652618    5.82700120292235
H         5.82795474323306   13.78620084828532    3.16974335790219
H         6.13351129611162   12.62668560606951    1.87703035889687
H         6.77815703462021   10.92592297741592    3.62060647436457
H         7.75941082606322   12.38331215244548    3.74203373270498
H         6.88696091305785   11.77541424061724    5.98771201683710
H         6.23253160850296   13.31667180894336    5.43395237040340

