107
CSD_code = SAKWIM | q = 0 | S = 0 | Stoichiometry = C30H69FeN2PSi4 | MND = 3
Fe       -3.27196457161513    7.86307671993344   20.08883520470657
P        -3.78123000788912    7.37639715898157   17.37105472797520
Si       -3.76218316344119    9.86620552933884   21.82466773384576
Si       -1.61667574502857   10.68398157864730   19.86641089311500
Si       -1.65049468560468    5.51020242544066   20.69883323877974
Si       -4.59344764671635    5.31201191126995   21.43684933829228
C        -4.93302155446764    8.81021181502376   16.96368421900266
H        -5.42591238387476    8.66061702902288   15.99639558747956
C        -5.97996988155880    8.88924422160205   18.07388766692476
H        -6.60664252339000    7.99582906305669   18.07711789705562
H        -5.44088489821640    8.94246623883457   19.02731937824817
C        -6.88261683444433   10.11136664665525   17.93053351745374
H        -7.60321390425136   10.13124960538096   18.75110376204545
H        -7.44628182793222   10.04321429918647   16.99587970551472
C        -6.05216922934501   11.38812823153986   17.92828547302969
H        -6.70000403180857   12.26047960096348   17.81613509523448
H        -5.52024675738648   11.47361049299543   18.87845597998702
C        -5.04056486502862   11.32874840502574   16.79089700421174
H        -4.43485660119063   12.23735662517249   16.77720324792388
H        -5.56992650496907   11.26906554748040   15.83560165203192
C        -4.13342478181309   10.11259039023356   16.95741268177542
H        -3.60708353553954   10.18733898673702   17.91167849341043
H        -3.39351356730981   10.11158192993277   16.15725901322492
C        -4.91092468341526    5.92159259063362   16.95334306644882
H        -5.81523150339270    6.13230401222356   17.53604704924234
C        -5.34637682797125    5.68999690360270   15.50902677244668
H        -4.49488386203329    5.36211277653288   14.91249152914506
H        -5.74870670955424    6.60375730291446   15.06892317022119
C        -6.40613737491934    4.58934722599735   15.46611483655214
H        -7.27659363228221    4.89529453731883   16.05106535089089
H        -6.73462064848435    4.43200905317732   14.43584892893461
C        -5.84171771199846    3.29095542228505   16.03507531441959
H        -6.60684137516440    2.51175207221755   16.01601709934717
H        -5.01043977633321    2.95548822188625   15.41000043829211
C        -5.34772654077304    3.50377548801172   17.46359561557712
H        -4.90719790113106    2.57907676061722   17.84263752472921
H        -6.19524108836077    3.75571949222976   18.10369260669436
C        -4.31859493039893    4.63062248720135   17.51949206435999
H        -4.00232500578999    4.80242408124201   18.54995947783950
H        -3.44344875264004    4.33553676926410   16.93894650156505
C        -2.53929555831691    7.50433720848499   15.95075346494596
H        -1.93398268203191    8.36294460896509   16.26746133901630
C        -1.60483220315888    6.29447411306262   15.94430856495749
H        -1.30774374564322    6.04880366576341   16.96702974972435
H        -2.11870872033414    5.42791461724001   15.52420839753469
C        -0.36979295317428    6.59343244557785   15.09723826019502
H         0.17967942077550    7.42633861916459   15.54145743821915
H         0.29293861100461    5.72534744627234   15.08249900206573
C        -0.77931430136324    6.95753310139417   13.67245384952240
H        -1.25573542886329    6.09402499859299   13.20161059487316
H         0.10504942855997    7.21065457136116   13.08387403582288
C        -1.75551475434432    8.13087284806323   13.67453131830505
H        -1.25798054950185    9.01490954934459   14.08041975837176
H        -2.06011243547657    8.35996501988309   12.65061876168125
C        -2.98791256090834    7.80340671742347   14.51949318293197
H        -3.48686438893619    6.94343843566485   14.07766318373455
H        -3.67980861877367    8.64493766088687   14.49027528506670
C        -5.51257390487309    9.13362157399141   21.67568357168054
H        -6.17903578893849    9.75500175239343   21.08991318251819
H        -5.96229430453579    9.01321435025471   22.65451618444719
H        -5.45170030823269    8.15508074033928   21.21358015716407
C        -2.79101059332619    8.80502501527388   23.08898377322305
H        -2.69214327747354    7.79555403713819   22.69546193480370
H        -3.28723332133417    8.74907685422296   24.05180415783244
H        -1.79418722006227    9.19711996952446   23.25728849883816
C        -3.91800986971165   11.65495503953858   22.47297231310005
H        -2.94557264564096   12.08909865861404   22.67303528440662
H        -4.48575761366111   11.67710116234371   23.39731835384646
H        -4.42516900987860   12.29421244095323   21.75937842230817
C        -0.27289632600324   10.81760690899772   21.22288265253681
H        -0.67945681972932   11.23626573220633   22.13737902756480
H         0.53874687082177   11.46269237931685   20.90028743915782
H         0.15436322709160    9.84989589557699   21.46483804958726
C        -0.80796050901492    9.94195017434886   18.30651542166829
H        -1.26824650040282    8.98748328586550   18.08128589311422
H         0.25300261878117    9.77514427627873   18.45306360219978
H        -0.92153326098521   10.59070365743422   17.44483485940492
C        -2.17138450915848   12.47341684582135   19.47149467542948
H        -3.08286862861305   12.49787301252412   18.88470379252453
H        -1.40345461647696   12.99533499294574   18.90897494115917
H        -2.35183631880595   13.03793544430613   20.37896456090084
C        -0.61433635841829    6.96655855541552   20.05089879750583
H        -0.73065598830839    7.06390903666664   18.97933589168315
H         0.44177128983726    6.84450170481474   20.25609346242906
H        -0.94363706095283    7.89657646181207   20.50667501163266
C        -1.08385690478374    5.08361616393423   22.47622614591304
H        -0.04765116867265    4.76084215625721   22.48459652181550
H        -1.68022540845845    4.28099279043275   22.89577774983496
H        -1.16685123963841    5.93722639291281   23.14035839477193
C        -1.28979096309272    3.97027116419210   19.62105588467810
H        -1.88952748852244    3.12161390273645   19.92755076636450
H        -0.24647595611618    3.68456152625385   19.70921502655069
H        -1.49257676936239    4.15459094342572   18.57233932682327
C        -6.20714962823456    5.80880091903723   20.53964695036596
H        -5.99503830295900    6.53378605509870   19.76140298472329
H        -6.92461058087502    6.24803878349731   21.22339049854195
H        -6.68578967079926    4.95105896982361   20.08015929011885
C        -4.75470500658373    5.77949430424756   23.28519777150995
H        -3.84604935575081    5.55152620583746   23.83155442565787
H        -5.56461471183132    5.22525998087684   23.75044758862134
H        -4.96042764454446    6.83549352471064   23.41294691393059
C        -4.46133784189169    3.40585990676213   21.38012182261658
H        -4.40207281787182    3.03480316279710   20.36318869938787
H        -5.32928233293402    2.94969664654538   21.84597040438550
H        -3.58283525170386    3.05628518058222   21.91085365120938
N        -2.95896270637627    9.68203821077309   20.29833364424979
N        -3.28092823287096    6.09475787323732   20.62362658018345

