93
CSD_code = SALCUF | q = 0 | S = 0 | Stoichiometry = C42H44Cl3N3Pd | MND = 4
Pd        3.38538692716615    4.98367021914728    3.92504563006731
Cl        1.31377983714028    4.65954033424505    3.02589843233473
Cl        5.34575776424161    5.33495824927630    5.04687068501664
Cl        3.19680131585877    1.34885294959714    8.04699718446164
N         2.54424381405651    4.44526923023755    5.69354359978315
N         5.00238177837393    6.36111390957461    1.79089936948969
N         4.16320272740949    4.44556307928004    1.13699506208021
C         1.41288765814727    4.95012430849873    6.18015390734746
H         1.00592113261670    5.81539427896202    5.67127837149339
C         0.76321768892613    4.39486329549532    7.26962334601953
H        -0.14959970287088    4.83719035240322    7.63564677098006
C         1.29220393992213    3.26675475592875    7.87423263045567
H         0.81028497984679    2.80002672280940    8.71871754142136
C         2.47213868902730    2.75074114808937    7.35629774737805
C         3.07398268538113    3.37051331748185    6.26950927185313
H         4.01707020301391    3.00634801374164    5.87347206806698
C         4.22042491460459    5.31995061567019    2.17538770694709
C         5.41221332880425    6.15834043448168    0.50243006713960
C         6.13180742783794    6.77429759224432   -0.59075622559721
C         6.72639124713032    7.97962122624484   -0.85970773474643
H         6.73367294702236    8.78398575206866   -0.13817217303562
C         7.32574746051153    8.16192491321179   -2.12337323210292
H         7.79814851877361    9.11228178954322   -2.32660672764665
C         7.33966634483645    7.18836522353202   -3.09064433754493
H         7.82370543354621    7.37093786900328   -4.03887090845213
C         6.70658218221581    5.94330772280520   -2.85927864740788
C         6.10288895785688    5.78619085075843   -1.61595061724613
C         5.37816431761204    4.62272737486587   -1.23031543301462
C         5.32136475328370    3.56564102862891   -2.10105370418182
H         4.81793033038232    2.64428288613585   -1.84540779788978
C         5.95140467923503    3.69988461106460   -3.35558508847683
H         5.90049922847635    2.86463384605541   -4.03918816701327
C         6.60938208063038    4.84077767756783   -3.74210220420492
H         7.06329649708201    4.90133131908607   -4.72040438016401
C         4.91103220025494    4.93427666769450    0.10241365995106
C         5.44665614971190    7.44142862034567    2.60148929415414
C         4.51534003268096    8.37084557154145    3.07316897187114
C         4.98089187976754    9.44602478163900    3.81957999452161
H         4.28100767979104   10.17421430351381    4.19926302664753
C         6.32661365070619    9.59202744827426    4.08848022799423
H         6.67289457875856   10.43200892351258    4.67251517484390
C         7.22926305416881    8.65422689487270    3.62708209226083
H         8.27498636331786    8.76685465363651    3.86673269966886
C         6.81623811686369    7.56072878939576    2.87795413774620
C         7.84327263928142    6.52980059489285    2.46205964159562
H         7.35965651970411    5.74577602751789    1.87301064645279
C         8.96017691777053    7.13912645550159    1.61040108449088
H         8.56770817290957    7.58107430708581    0.69837911735192
H         9.66921081186390    6.36219831617988    1.33217632238165
H         9.49710962572384    7.90563510743192    2.16306821982161
C         8.44717729933616    5.86451279277614    3.70257547137964
H         7.65858362710805    5.46425397721238    4.33298535470295
H         9.02375542055190    6.57856043341523    4.28462117497299
H         9.10621017011391    5.05276859626628    3.40175838034392
C         3.03141107590071    8.23397450279406    2.81330333584905
H         2.83569948185675    7.33764941152621    2.21015732226636
C         2.48959130337984    9.43914425684506    2.04237677944709
H         3.01520165789751    9.55385693314256    1.09629028415091
H         2.60721859268619   10.35731240274529    2.61268459657485
H         1.43181776340634    9.29725931391307    1.83392413886463
C         2.29466474660370    8.05080821359549    4.14688792717260
H         2.79624704269904    7.26268451259824    4.73486255850551
H         1.26131948851366    7.76380818804404    3.95538654239858
H         2.30331466649484    8.96939580830443    4.73005128764312
C         3.33111905388258    3.29287777277104    1.03041917281962
C         2.26771039619646    3.32173774802744    0.11971030393196
C         1.49743271737821    2.17312819759088   -0.01044327139482
H         0.66342692627088    2.16908876951534   -0.69442898026647
C         1.77134631241401    1.04200093406548    0.72976051647189
H         1.15948193501732    0.15954029467940    0.61323649209689
C         2.82071537431511    1.03612196551961    1.62901657682016
H         3.01462667765534    0.14342036117317    2.20035765014371
C         3.61691423442473    2.15961529333336    1.80348567308990
C         4.80195547522475    2.14536607261148    2.74987833766505
H         4.86385981946664    3.12354483392358    3.26562414748529
C         6.09302382866647    1.94695344010690    1.94680295869028
H         6.22246133794742    2.72931958434883    1.20215932899466
H         6.07137946886156    0.98685959289992    1.43315134628873
H         6.95192949540308    1.96606539468652    2.61353348968920
C         4.69562297574473    1.07496476097788    3.83727547230552
H         3.71989315394220    1.11415658721658    4.31916067913452
H         5.46466027470085    1.24556651197089    4.58841657970416
H         4.84802621173105    0.07764668092387    3.42906449403934
C         1.88862562670648    4.54945322012331   -0.67956844605556
H         2.58818939848428    5.36142222992204   -0.46215167809514
C         1.93138823778976    4.28204043976141   -2.18659149979510
H         2.92485983260196    3.97788550886560   -2.50622238324167
H         1.66443804944485    5.18894349721347   -2.72503316381671
H         1.22580555850152    3.50290310878910   -2.46298512127370
C         0.49092652590333    5.02908182973347   -0.27700247861521
H         0.43927190325101    5.16348219950737    0.79972071162346
H        -0.26706590758464    4.30732737670659   -0.56935836166540
H         0.27085228784863    5.97654208894457   -0.76451002643619

