49
CSD_code = SALDNI | q = 0 | S = 0 | Stoichiometry = C20H23N3NiO2 | MND = 5
C         3.48345212508087  -11.26553749028249   -0.15890060721006
C        -0.62195634180399   -6.88358573202491   -4.29162787135453
C        -1.83477651787429   -7.45081271455704   -4.57989905204980
C        -2.22624126923063   -8.60869676029796   -3.89888352313846
C        -1.41630592817177   -9.17719868910266   -2.95490467367733
C        -0.14165968273258   -8.63360257552163   -2.63924393540148
C         3.47461677986134   -6.32013874506604   -1.91134664128724
C         3.24805794834477   -5.65211091778589   -0.54395521166957
C         3.32302905152983   -6.61662617370434    0.64060675605141
C         2.13341433319196   -8.47268172894805    1.73686980380899
C         0.99358297674387   -9.46778982260333    1.50369505059314
C         4.73729850189813  -11.19479062702709   -0.82532647829406
C         1.35928692306765  -10.67686375676540    0.60999166337348
C         5.65902916834238  -12.24636408462565   -0.69088551318710
C         6.89578229241028  -12.18963187237617   -1.27726954967960
C         7.25433412454744  -11.05316860344024   -2.01046223184103
C         6.38781920366197  -10.00421561144488   -2.15056121232363
C         5.08769608613614  -10.03444498134960   -1.57951267816590
C         1.46513368553424   -6.79056031777801   -3.02449203213233
C         0.24204397120879   -7.44524731608674   -3.33651526258832
H         3.38487183417573  -12.11116534776244    0.53112799712256
H        -0.30572059638363   -5.98655318264414   -4.80746980279537
H        -2.48442251786687   -7.01439251830575   -5.32306238741053
H        -3.18371817770901   -9.05797870155406   -4.12305695782113
H        -1.71731531258344  -10.07216773629633   -2.43033823262711
H         4.40833432493445   -6.88545453884512   -1.88229941909517
H         3.55475104351956   -5.53106784641100   -2.67255409124220
H         2.27054579294317   -5.16018807085925   -0.54589606384034
H         4.01215207819508   -4.88356608875638   -0.41406348235202
H         3.27864011612135   -6.03411115634263    1.57851013884872
H         4.27390853074961   -7.15601783886578    0.61710506148092
H         3.08461800261236   -8.99585248045064    1.87065999130910
H         1.93312052311738   -7.89412519189147    2.65580125976509
H         0.64581810649982   -9.85120295625902    2.46410031089904
H         0.16928219129415   -8.92386856540274    1.04069563123756
H         1.36284919375293   -7.08969413009802    0.48777297306205
H         1.56787372435452  -11.54421980458299    1.25236909239816
H         0.49398745988178  -10.91094165287746   -0.01627485735139
H         5.36919800777375  -13.11704884496051   -0.11760265303175
H         7.59066615370937  -13.00919900290176   -1.17663811450133
H         8.22978714751830  -11.00636583390076   -2.47399605626788
H         6.66123562360672   -9.12758361631838   -2.71943656396031
H         1.59125414078172   -5.80174405433877   -3.47881587328666
Ni        2.43333833581240   -8.91130571417706   -1.38699717249858
N         2.24493857008239   -7.59517452279554    0.57717476779949
N         2.39551235638244   -7.22662498035573   -2.24860123637900
N         2.49430120304829  -10.44640515706537   -0.26006316644171
O         4.31204810214255   -9.02919013609922   -1.72858186222632
O         0.57610660978796   -9.20232180808924   -1.74674603062240

