75
CSD_code = SALHAR | q = 1 | S = 0 | Stoichiometry = C38H12CuF20N2P2(1+) | MND = 4
Cu        2.50640605167346    3.47927398086199   -0.18832367982395
P         2.57215346189369    5.55544197375062    0.64001079530290
P         4.19365023027142    3.99324723044922    2.36781744110884
F         4.86125882268857    1.12428218667161    2.85758507296709
F        -0.20983809074657    5.22222200868905    0.31225482158728
F         0.86017813840677    5.83573705022907    5.59352149274788
F         2.85903125944820    5.89252232361679    3.79484566235332
F         2.81659957107424    3.24310375978809    4.79243052151968
F        -1.72281162549928    5.48219795674455    4.77655298865268
F        -2.26555592192556    5.16288193186014    2.11835289457908
F         2.45587975748353    5.58132574970338   -2.27345054940655
F         5.35494088885790    4.42600926535779   -0.46041876451919
F         1.42314972948666    7.43041484728873   -3.99141617872985
F         6.86850942118180    0.05064941950154   -1.25768347888334
F         7.16399623618970    3.82948777978827    3.17688605649939
F         0.31039120267070    9.71753565025699   -2.99634750167632
F         6.01815585679001   -0.68973148942737    1.23485018997653
F         6.52561119930314    2.63001481815854   -2.07950495156878
F         8.18516608854419    3.19856001462553    5.63560399833003
F         1.30325486383811    8.28169416685465    1.37971705353171
F         0.25739840679889   10.14006253518491   -0.30400206293836
F         3.79797280928181    2.60322168443956    7.27658489455826
F         6.49498710500139    2.59325788216382    7.68115929012477
N         2.19149171628963    1.75258307211566    0.89062736535978
N         3.05868802001442    2.19685986008651   -1.63268187186553
C         0.57494340349538    5.70813958938291    4.30500856937885
C         3.10441098222848    0.93549114388353   -1.15469982108297
C         1.87609959873275    6.88875040412104   -0.42343759310324
C         1.59860605930763    5.74779539296629    3.36290782567951
C         2.64871669240862    0.70066970379877    0.18451261860074
C         3.59253380914654   -0.14328037706979   -1.92085842048237
C         1.89989349691539    6.70298127036051   -1.79995473889533
C         5.57753530694493    3.18901953614421    0.00459241992955
C        -0.74318557830397    5.52442844631909    3.88956051074408
C         2.70021660364215   -0.60304655215276    0.72176381928960
C         1.38015007109283    7.64250160011875   -2.68206967606894
C         5.17080597797520    2.85404728697987    1.29263385704830
C         1.34814096504474    5.61849810337514    2.00404798338176
C        -1.02074195922270    5.36482934667662    2.52977172895055
C         4.62466662312873    2.91692571303329    6.28724510211173
C         3.63949445067850   -1.44578658035951   -1.34386418370576
H         4.02823727510830   -2.25359581146254   -1.94418668306058
C         5.01229104017307    5.62738690666497    2.05146003016963
H         5.18654864937047    6.08937737455508    3.02503187339706
H         5.97907816544823    5.50073979585677    1.56540226396206
C         0.02594205615893    5.40579909328675    1.62042638658661
C         4.97724810081064    3.56900996358400    3.97627866131611
C         4.02576585393659    0.13711027540846   -3.23006961860221
H         4.41272564165363   -0.66145631321038   -3.84454445453331
C         0.78474461788890    9.02704082619825   -0.79544343570640
C         6.17429874716884    2.26781419451860   -0.84786218321198
C         0.81308355308072    8.81216887916928   -2.17470029585747
C         5.91916730642442    0.57655526471073    0.83871413460626
C         6.34969999696976    0.95092894096699   -0.43162375674029
C         4.05719428442774    6.48847868351913    1.21677012143236
H         4.54694361077396    6.83571324779067    0.30146767532834
H         3.71932851887988    7.36869079803985    1.77145306333363
C         6.34749815257676    3.54518367113812    4.19836811030045
C         1.31739445541439    8.06742874705031    0.05853376838549
C         3.95035975734359    1.42610613491630   -3.70133225164023
H         4.27123123801885    1.67432627328681   -4.69944735149703
C         4.13468582203272    3.24546244047222    5.03001293304858
C         6.00510712868946    2.90788896181865    6.49293534511842
C         1.77328547232025    0.31192448127803    2.73921425932504
H         1.41812824381181    0.21532769086690    3.75180785215259
C         2.24764453622485   -0.77447455346984    2.04254069345230
H         2.28068887747709   -1.75488375778190    2.49272857392816
C         1.76263014107470    1.56451764552115    2.12026274437182
H         1.39860820942141    2.43782601338050    2.64490181957484
C         3.45891933218989    2.43318430473121   -2.86483015627363
H         3.39789901782712    3.45669960697132   -3.20335088496577
C         3.21282003759432   -1.66644518530112   -0.07607055409450
H         3.25521159878422   -2.65344658996929    0.35737519102038
C         6.87193539763167    3.21984461074905    5.44368826554037
C         5.33380346104621    1.52384769848518    1.66815635852585

