81
CSD_code = SALJUN | q = 1 | S = 0 | Stoichiometry = C40H16CuF20N2P2(1+) | MND = 4
Cu       -0.93398021694233    3.57413650380931    9.68179962358239
P         0.69331276807788    4.09166198626183   12.28085672098586
P        -0.76112439263932    5.67094764364987   10.41627523619795
F        -3.55195525993830    5.51729866429019   10.05773831867594
F        -0.82367597982070    5.57454562684180    7.49765878887969
F        -5.63474662571916    5.72086443736802   11.82212667846796
F        -5.11171542180001    6.16733273778461   14.46613494652111
F        -0.49847946958331    6.18923942254380   13.55381859773018
F         1.07577648166616    1.23023414794345   13.00805973546100
F        -2.52180358011110    6.38791231645319   15.31054964929583
F        -1.71161995502012    7.40182311663779    5.68164763462410
F         3.10946360048445    2.19556557089667    8.07396422306413
F        -1.83839761635127    8.51645396343097   11.00369030771757
F        -2.74023985769893   10.35359038065302    9.22056846235409
F         2.03276791837101    4.20947520904060    9.49101864004989
F         2.11724287557666   -0.80392337750442   11.57878608926062
F         3.14724292775789   -0.33577723521709    9.08646824006329
F        -2.68563644895894    9.80021669411562    6.55141529902711
F         3.61190716425087    3.76625521985847   13.21663834791274
F        -0.81898853384083    3.63360449363693   14.70185189755336
N        -1.39675114657731    1.91577656917181   10.78418482180499
N        -0.39328515960529    2.21599199806945    8.31625129418328
C        -0.55161021708028   -1.58663517546779    9.98963418273889
H        -0.58722612687779   -2.56624281786097   10.43676449345025
C        -0.04135166870641   -1.43485948835316    8.74213738677791
H         0.32454226535402   -2.29517963847965    8.20645549872093
C        -4.11761937946382    6.08090329706663   13.59816525201709
C         0.78989327651473    6.50847298284663   10.96431347999726
H         1.32518906271835    6.73883898407901   10.03746145066454
H         0.52480382741480    7.45543692442811   11.44349487449207
C        -1.03824705578076   -0.47501660470414   10.73427444830203
C        -1.31111600007684    6.74919976506977    7.91206539592942
C         0.03021154063621   -0.15800452268247    8.11543847715156
C        -1.63326182409564   -1.88856562964423   12.75162192925689
H        -2.23924617926017   -2.59497744284458   12.18615317413722
H        -2.06769621334067   -1.77085515960045   13.73992449861745
H        -0.63607735644454   -2.31436459695211   12.85802331276119
C        -1.99532591310069    5.90323303396447   11.75293584956775
C        -0.44188999347106    0.96496590619888    8.82365359121011
F         4.49986059621396    3.26122905498710   15.75390410536537
C        -4.38442222481919    5.85532234216200   12.24574979674190
C        -1.89203078869661    1.80355613062844   11.99871159544831
H        -2.21806747792838    2.71878629992253   12.47534235600547
C        -0.97947577048802    0.80405883224000   10.14502421645109
C         2.11152534179929    2.99697934603268   10.05441323998367
C        -1.75844746966441    6.10257314159824   13.10542841844668
C        -1.99161420052818    0.58319028516822   12.66040469689368
H        -2.39773685353378    0.55755485677255   13.65864017139052
C        -1.56159304181335   -0.57988587600716   12.04927537640780
C         0.57043952074494    0.04763050804381    6.81863844940587
C         1.12556004273894   -1.07848524333513    6.02210435330883
H         0.36831410090995   -1.84325127233994    5.85598507061466
H         1.95769993053677   -1.54037117350717    6.55277408376500
H         1.48220378464400   -0.72677724808678    5.05856680584659
C         1.61390326433926    2.79852914218255   11.33870646801086
C        -3.32357366392076    5.76237740389072   11.35683040354285
C         1.63262897107631    1.49158282255600   11.81703256208961
C         2.68201944014019    0.66972400177998    9.82034270147863
C         1.38590588564219    3.73414222432665   13.94739466792148
C        -2.28191996455690    9.18600876940585    8.78909142959548
C        -2.79647761062482    6.19637667032303   14.02739756855712
F         2.70193578938227    2.95211338320231   17.77398666413073
C        -2.25233544387337    8.90453929832541    7.42224265704431
C         0.08828883369176    2.39117980553457    7.10244500552192
H         0.10106156683743    3.40452131584380    6.73059764672426
C         2.15943465354891    0.43351021022449   11.08858364084341
C         1.64872799855328    5.63173107989583   11.88336692057517
H         1.83261081768499    6.14359656409893   12.82975692569756
H         2.61565036317914    5.39879278178977   11.43918303305786
F         0.02865787521951    3.12997289057103   17.26569462271970
C        -1.75690195680506    7.67788010455483    6.97918668570931
C        -1.82387268586802    8.23564959590445    9.69490044996431
C         0.57523099480164    1.33999006615619    6.32955394031672
H         0.96969423463628    1.54944831734835    5.34845870256597
C        -1.33957850712188    7.00035261444668    9.27824802232893
C         0.48661132937526    3.55907056964808   14.98931330726892
C         2.65841715033746    1.96234001211718    9.30444201025585
C         3.19873192095818    3.36471075493238   15.51036264629142
C         2.74184299976818    3.62642825176396   14.22419040068098
C         2.27658431446762    3.20469407226050   16.54623227549348
C         0.90851982236583    3.29915138560493   16.28677505622141

