55
CSD_code = SALJUM | q = 0 | S = 0 | Stoichiometry = C30H20N2O2Ru | MND = 6
Ru        8.89733169644838    1.82983765284293    2.56012314773883
O         8.39687029729853   -1.11980605445101    2.44496522633681
O        10.21217351623582    2.04252855642965   -0.14768842564466
N        10.68611313203881    1.63212429061346    3.74445705764879
N         8.86134589427437    3.91202198900867    2.78786318769283
C         8.63231207238982    0.00467513135243    2.47311186619673
C         9.72383228625840    1.96662000200239    0.88878248622774
C        11.91817173236213    1.43894248837877    3.28377533004238
H        12.03065836868818    1.39016939774905    2.20671235656826
C        13.02176704485848    1.30161912302297    4.10370995527814
H        14.00000436605834    1.14771410567341    3.67825487680078
C        12.82985527626351    1.35770160571930    5.47956745239861
H        13.66449861538380    1.24586988165042    6.15565351178307
C        11.55665624162800    1.55097517491742    5.96735295742705
H        11.38314723544939    1.57790401052454    7.02844417723346
C        10.47824804586926    1.69312592700550    5.08406573179407
C         9.09776575479747    1.87212963607855    5.46110734834438
C         8.46740736518457    2.05286813788689    6.76822258788718
C         8.95378335779529    2.19216553582579    8.06066048857955
H        10.00974492934096    2.18335212613416    8.28187897987596
C         8.05877054358618    2.36173918158012    9.10502814406641
H         8.43654699436112    2.46638686309249   10.11221392567880
C         6.69221225607197    2.39988912494478    8.88159846291293
H         6.01505921148363    2.52955833269248    9.71304119090186
C         6.19314526406425    2.27978142823957    7.59286563858895
H         5.12894593652778    2.31965431546418    7.40834809126415
C         7.07931646024854    2.11255843476859    6.55149524247052
C         6.79491481397180    1.97810227469196    5.08788319050440
H         6.17985439734203    1.09997239925900    4.87003685915906
H         6.25433373719805    2.84352193675164    4.69193005797835
C         8.15323365864516    1.84212255499620    4.46213819581972
C         9.84363547175131    4.65510703061246    3.29247332996337
H        10.77302982435952    4.14636163978509    3.52676796878839
C         9.73392907120534    6.01251028163160    3.51514735865761
H        10.56419985921931    6.56443962767427    3.92480350123022
C         8.53222948879121    6.63919675037550    3.20017083644457
H         8.40500955683293    7.69817721562575    3.36836294014977
C         7.51140902880344    5.88597913145424    2.66894437699779
H         6.57244429936906    6.34623872266149    2.41685952964530
C         7.68456421004808    4.51077950469071    2.45777014955408
C         6.71250458434343    3.60748200695816    1.90792157549069
C         5.35660795825203    3.80342076881518    1.40012411247897
C         4.53186409202421    4.91145082998027    1.26864816598211
H         4.84728614304597    5.89935156696203    1.56605854308811
C         3.26251522095919    4.74954503040669    0.73575128219433
H         2.61814808571421    5.61129811512491    0.63482053331016
C         2.80620866542370    3.50546392418606    0.33313312459870
H         1.81254343263665    3.40463630828902   -0.07776073843970
C         3.62196993579060    2.38952879979063    0.45630246357652
H         3.27331599163296    1.41652482346455    0.14088948983552
C         4.88395986011956    2.54499494472344    0.98544334781327
C         5.94095285608631    1.50725331283995    1.21685354986795
H         6.24370551753569    1.01646885075585    0.28737297071902
H         5.60037058697704    0.71938871647231    1.89440055184958
C         7.07647575694808    2.28407653187602    1.81284173664765

