25
CSD_code = SALMUQ | q = -1 | S = 0 | Stoichiometry = C4H12Br4O2RhS2(1-) | MND = 6
C        10.41222384891417    7.29200209437197    2.37411797297476
H        11.29292812891932    7.56288311786239    1.80138369571756
H        10.69732463983981    6.89339305481872    3.34112399916614
H         9.75297714793412    8.14671671879139    2.47076189466110
C         8.01003065886118    6.01194938261704    2.49932912710071
H         7.65521513825229    7.03495880126829    2.54531380080563
H         8.26910640725806    5.63118994292829    3.48061378830277
H         7.26270701876801    5.37900071914547    2.03250863153540
C        10.70827762100483    0.77624688004153    0.09328860671749
H        11.35391581167262   -0.09254592968224    0.03918094069135
H        10.48629350530914    1.17482231958113   -0.89000608507550
H         9.79137064205824    0.52709689845891    0.61698806874006
C        13.11575670532510    2.05171794565660    0.05053729839704
H        13.86292998000818    2.64535757217539    0.56662421816127
H        12.89241802214118    2.48345520767116   -0.91848612667526
H        13.44987339237628    1.02434240658133   -0.03503441785672
O         9.09278477063600    6.65426498661941    0.21201579066978
O        11.96881117296171    1.37916199952220    2.29871708877097
S         9.49903253695856    6.01465159689234    1.44481514974210
S        11.59896152278764    2.03804039412025    1.06461331577747
Br       10.63289416983809    4.05150359884390    3.75357950932633
Br       12.75044192933378    5.19841740923995    1.17778324775846
Br       10.48185220399057    4.00956514813186   -1.24363526846664
Br        8.35197140959167    2.85845487468716    1.33144195007162
Rh       10.55180161525922    4.02775285965497    1.25492380298592

