55
CSD_code = SALMAV | q = 0 | S = 0 | Stoichiometry = C30H20N2O2Ru | MND = 6
Ru        4.59450160959034    5.18135007898052    0.38205539803000
O         6.73143744760416    6.91305050862689    1.55938409798458
O         6.21365734933721    4.07021007088328   -1.90475003834598
N         5.01017823010572    3.60197817552528    1.79603828334066
N         2.82924820323979    4.19026332065482   -0.23275148269241
C         5.93620695450803    6.24896886047674    1.06122978506660
C         5.58916948989721    4.47657429496334   -1.03037340655997
C         5.84618393416729    2.57895004592874    1.65676002046781
H         6.45694734384888    2.57066305538624    0.76162709001105
C         5.95797875510242    1.56068477572442    2.58543553658715
H         6.65435744525463    0.75407561231659    2.42400975704626
C         5.15604968158022    1.60431085666759    3.72297597096621
H         5.21546753444060    0.82199915268736    4.46511186593244
C         4.29136877835647    2.66184780645318    3.88468322844856
H         3.65566728385684    2.73512345371705    4.75301105963790
C         4.23223014525876    3.66673659154283    2.90567524534341
C         3.39268488983821    4.81821638670775    2.98033079912993
C         2.43855323505330    5.17204312324088    4.09113928809782
H         1.64087678851569    4.43232134601005    4.20454228699282
H         2.94390128691040    5.26912681570038    5.05584751199395
C         1.91402288183362    6.49137887711078    3.61239559964759
C         0.99833520657571    7.33698842063101    4.19917043476790
H         0.53132997506525    7.08206735073529    5.14050354426221
C         0.68913272356932    8.53059392182559    3.56103927860789
H        -0.02635391106332    9.20535571475943    4.00867833285273
C         1.29701748279013    8.87086752144747    2.36044432070494
H         1.05073649446572    9.81143373748613    1.88859703402092
C         2.21638873667785    8.02657700054900    1.76369735456632
H         2.69937433624357    8.30012241404192    0.83809897495133
C         2.52276733549351    6.82158390589589    2.38556831461542
C         3.43947992000547    5.76522570423922    1.98588320673352
C         2.42813707774754    2.96607490088386    0.10096826079515
H         3.11942515665660    2.35961184766132    0.67613289015110
C         1.20233536447548    2.44179526023173   -0.25705149256677
H         0.93521042128832    1.44073625612838    0.04083103684912
C         0.32951873475821    3.22856764808168   -1.00678308530447
H        -0.63830405688951    2.84763239067155   -1.29688565714468
C         0.72910135233171    4.49109597633362   -1.37065930931678
H         0.08960025479079    5.13447165182443   -1.95394180290448
C         1.99238881679003    4.96387418780803   -0.97710945857498
C         2.52092577781126    6.23956887660597   -1.30986164859583
C         1.89563517860435    7.31668252092714   -2.15516969921925
H         1.67400197026280    6.97649415221483   -3.16991675160437
H         0.96737253614438    7.69324416332459   -1.71689481527851
C         2.97365349783374    8.35871261541785   -2.14298192573620
C         3.00718913697951    9.59493277183301   -2.75060091703692
H         2.17335986181063    9.94431940711789   -3.34329493545295
C         4.13605375955294   10.38698601114549   -2.58898718391474
H         4.17740409366247   11.35885591956351   -3.05907946135648
C         5.21264504825131    9.94458589805533   -1.83228582215697
H         6.08056911971217   10.57875968111603   -1.72426208202366
C         5.18653464817187    8.70567967257916   -1.21669682171742
H         6.02291490762069    8.35785159346880   -0.62871033556572
C         4.06002879600694    7.90587011541957   -1.36843129548220
C         3.76620097750767    6.58480758066835   -0.84048638005152

