214
CSD_code = SALPON | q = 0 | S = 0 | Stoichiometry = C84H120LaN3O6 | MND = 9
La        8.04919604581828   19.70177230159569   18.29049618040085
O         9.79247353344412   18.09689574594293   18.15643887582217
O         9.29192459173492   20.66839553430979   16.51439381615457
O         9.68113966790262   20.84643066281166   19.57895229843473
O         6.66897212764658   17.76978699693613   18.25023546765476
O         6.20436877291965   20.60416055057390   17.10134954817932
O         6.65790655052668   20.22429255936192   20.14011892283484
N         7.87521779733882   18.50971629609512   16.03820011049436
N         7.79144985400554   22.24060386934788   18.40427247246754
N         8.48275872295847   18.35705542937395   20.41680687311140
C         4.45629210132637   22.20632524376005   16.92127033973239
C         6.83364080277906   17.69760087586305   15.90036564547713
C         9.89367232373301   22.07688816679806   19.41888388663870
C        10.32423638449905   17.34818170552370   21.67074373511477
H         9.84186867708007   17.57820062177316   22.60630027438526
C        11.08437118314546   22.73977215503867   19.89800530794881
C         6.25767719629509   17.28380435103152   14.67411567752035
H         6.67356959286447   17.69784946212495   13.77054301055116
C         6.18829653281116   17.43288020601088   23.12342227865513
C        11.61574664004821   16.95732687763275   19.17278656103472
C        10.34588085998820   17.64544299188520   19.19322081650823
C         9.66682798405090   17.75972548762140   20.48544921509115
C         5.75594288938550   21.75216385889586   17.35842545893038
C        10.33443440584003   24.84266415332802   18.86220846847016
C        10.91021971766428   19.58923952362568   13.50732738013187
H        11.69822073396128   19.87400200271006   12.83017717439717
C         6.59193837985195   22.71142785970606   18.08284380853633
C         8.87925944382412   22.90932691109876   18.76910620500908
C         6.06130880688418   23.96841195554894   18.46340949321090
H         6.66498598659304   24.58172289622540   19.11163924861673
C         9.15195960624417   24.27127140872393   18.49092815573719
H         8.43438674816088   24.80431534451820   17.88949179091763
C         7.28102475829155   17.37659759437498   22.30765474370901
H         7.95988687240408   16.54032382749661   22.33308191733250
C         7.49239767694620   18.35112419718462   21.30153040941568
C         9.22367302333986   17.98600300358667   14.06609653027695
H         8.72840516756398   17.03586620224176   13.95285552380755
C        10.26925786647995   18.34455450460014   13.26548815961709
C        12.10189618774915   21.91956306363802   20.67980212704853
C        12.05219973539397   21.68188870639152   16.15189151188769
H        12.53312421006164   22.63743683525133   16.35475848723781
H        11.34814589398445   21.47470032267471   16.95225260242398
H        12.81171932841837   20.90280669230009   16.14097998671751
C         4.03023773724516   23.44236878997324   17.31242677721180
H         3.04739643573273   23.76999494184442   17.01705446999321
C        10.61198368948929   20.41412643482816   14.55273818925537
C         8.83450321451043   18.79183572854941   15.16412519064009
C         6.90388957788218   15.24021356980792   24.17810948121912
H         7.88316862017439   15.63109192439149   24.44458547229929
H         6.62291720967470   14.50001920981576   24.92479104213344
H         6.97006506121429   14.73873460895500   23.21565762798227
C         4.50143150019176   15.73465288393624   23.78762209177133
H         3.70659330325301   16.47522850240603   23.80521686141702
H         4.54305806155817   15.30361795056774   22.78962056019099
H         4.24999283711910   14.94688798256129   24.49495241246429
C        10.28559712940611   22.86357831837003   14.82200246154360
H         9.75330584058647   22.90628903688631   13.87322601345740
H         9.56775754329093   22.69948147926367   15.62008090797019
H        10.77649491012292   23.82085205900386   14.98792504001794
C        11.32795273045661   21.73537800286871   14.79991434606107
C        11.25793079814423   24.06185918307174   19.60800057541630
H        12.16076369771710   24.55057239615804   19.93452526174171
C        11.57371292878206   16.80065691505348   21.62874783673803
C         4.42267346674157   16.11328390792173   13.36735486564434
C        11.59023881249656   16.72650932457690   24.16371510817197
H        12.19880417466153   16.45252840217907   25.02333734225171
H        11.34522862475961   17.78247165267003   24.24801691711768
H        10.67294579987242   16.14347797613656   24.20203341947862
C        12.28626249389379   16.71973407705650   17.82621059280276
C        12.63613163067342   20.78622425357134   19.79352392427270
H        13.15086503912726   21.19724560798106   18.92744939616016
H        13.33517293947816   20.17054582560229   20.35725700236259
H        11.82136420932365   20.15533488659110   19.45090633185725
C         5.30624027347368   18.53949401168563   22.99686375355268
H         4.47960501747497   18.58792602233897   23.68597623377607
C        12.36029824810456   22.06010121100292   13.71507189367628
H        11.89384798527033   22.12639135319510   12.73440622954045
H        12.81851661050021   23.02248418072916   13.93430221252749
H        13.15144196391372   21.31406679220571   13.68706930428256
C         5.14288339904470   16.49689034854307   14.65017916272392
C        10.97596415037623   27.07138040180636   19.78318944309349
H        11.79804019329889   26.65561951711431   20.35874121911487
H        11.22370249142484   28.10154247100631   19.53554159296917
H        10.08654342165212   27.07126016864467   20.40977380007757
C        12.36698238255776   16.44167391687132   22.87509316987450
C        10.71957564538566   26.26811945585263   18.49997823242572
C        12.71412444856751   14.94621524600987   22.85056744353701
H        13.33647960981571   14.69280202338973   21.99711532825850
H        13.25414139591176   14.67368272809983   23.75506357923599
H        11.80494967810899   14.35085740700050   22.79869152097084
C         4.61831783364752   16.02986362652268   15.88525004052144
H         3.76981051296851   15.36779505930035   15.83779739626275
C        11.40987887134752   21.32133374314028   21.91386634269390
H        11.01260318304572   22.11323594586337   22.54660989444658
H        10.59435142016897   20.67099633819768   21.61192951943447
H        12.12261362226309   20.73814951851170   22.49421778301913
C        12.58137811952577   18.06793335321748   17.15496454385059
H        13.27520190155796   18.64622947210129   17.76171323489780
H        13.02454629163977   17.90612822280074   16.17366087804051
H        11.66580416092466   18.63806478979664   17.02890336020224
C         9.62531803664739   26.98408947500987   17.70307590435667
H         8.70503336675105   27.05090657866442   18.27873790767607
H         9.94921775657877   27.99627581268367   17.46876301004016
H         9.42335280849404   26.47008872989608   16.76646632922808
C        11.99198065484099   26.23441899736433   17.64139041755739
H        12.82283248512403   25.78628838283880   18.17924751078542
H        11.81656940678019   25.65202139767316   16.73940200449276
H        12.27746798579487   27.24377413854781   17.35186703256454
C         6.50784142960137   19.41460324932878   21.09246358116833
C        13.60355174335316   15.94683726753766   17.95024175171918
H        14.33483246241034   16.50401335502839   18.53168783189884
H        13.44704217205998   14.97245780596193   18.40826943100400
H        14.01963788830715   15.78785414786168   16.95735598265812
C         5.42575880843548   19.50962157673165   22.04457879898738
C        13.65494141322083   17.27713157071625   22.89769960107956
H        14.27537750932497   17.07402331078382   22.02919144853491
H        13.41034819782571   18.33717991544438   22.90087671494031
H        14.23392841288590   17.05250993261800   23.79124142266792
C        11.33417348736361   15.90397191641806   16.93859196939833
H        10.40831793614020   16.44803567375590   16.77739447752454
H        11.79777536866464   15.71351009088399   15.97230962627354
H        11.10392572473143   14.94872187860074   17.40744175529723
C         9.99853680601695   16.16757567624124   11.99279787985917
H        10.05327334195874   15.57020980256724   12.89963426426029
H         8.95546788264947   16.37354302763566   11.76397252996181
H        10.41174539801608   15.57869904331302   11.17620775692206
C        12.17031201050458   16.57410475589392   20.35933516633279
H        13.13424904308023   16.09316436993351   20.35004751583842
C         4.50346136212153   15.89660683338846   18.41887960025524
C         3.36640585046092   14.89165324376372   18.20619976090754
H         3.71011875237294   14.01862754914650   17.65538963491322
H         3.00108420249092   14.55503233849759   19.17443200533449
H         2.53218010328873   15.34571035307500   17.67591515743497
C         3.95129458705933   17.08539259033687   19.21711839743402
H         3.55961212417095   16.74215724819060   20.17332328468205
H         4.73548382886106   17.81199930999791   19.40770094121882
H         3.14950786958851   17.57002611724549   18.66369326593808
C         5.60869755324862   15.20447799727851   19.23073613860671
H         6.02070576824450   14.36579794905729   18.67198628158740
H         6.40842322687505   15.90428162938927   19.45410093171459
H         5.20245917450140   14.83038597253147   20.16879287645759
C        10.79434642854124   17.46759462488230   12.13998570422051
C         5.09871291991918   16.39580766259096   17.10896911955074
C        10.70658969556361   18.23137646480158   10.81087146675654
H        11.31654248753315   19.13008581586654   10.82375620724168
H        11.05179947188369   17.60046161173633    9.99434281779686
H         9.67685319090719   18.52079407872041   10.61192727568064
C         5.85774592957514   16.35808420457719   24.14674111892101
C        13.29293354434613   22.75634398891528   21.15863534470874
H        13.85034188645064   23.16598001580337   20.31911881667951
H        12.96901986037313   23.56871935890925   21.80578205753325
H        13.96899358257219   22.12237086902059   21.72892372536146
C         3.31958812373892   19.98323309692060   16.85093294607032
H         2.74050038026757   20.21196923162463   17.74327442646188
H         2.75099566450813   19.29112988010199   16.23188350142772
H         4.24489943936070   19.49846345853245   17.14754502132429
C         4.38558406443144   14.58390744918607   13.23660419532492
H         3.84065770719163   14.12442779933603   14.05630086914352
H         3.89800726045456   14.30064182241514   12.30597893759054
H         5.39710347851687   14.18317616622040   13.23228764069265
C         3.61431093057736   21.26870371014322   16.06605553904285
C         5.10923512499089   16.67890942854645   12.12086887868318
H         5.13443319106498   17.76560532947359   12.14690453991542
H         6.12495360838492   16.30079943714617   12.03060292068175
H         4.55779985352957   16.37603520901084   11.23286306749958
C         4.45501579498392   20.67638810340370   21.91978220101252
C         9.58714216310045   20.00599549224265   15.48522698677422
C         4.13623520284275   25.61812798674161   18.59342228953077
C         5.07825664990595   26.47256943185772   19.44640639004658
H         5.38544040021588   25.94023344276535   20.34330120692813
H         5.96228440356603   26.75927602927801   18.88151275204281
H         4.56615865993356   27.38233873513040   19.75371131281364
C         4.40220098012150   20.92192348570834   14.79377390616544
H         3.81455061897618   20.25893572594368   14.16130780393395
H         4.63080489893115   21.82564523624301   14.23132167580503
H         5.33211769299808   20.42271210256177   15.04918205583529
C         6.20521474662027   17.32253360886341   17.16872166479428
C         2.99216219729373   16.66849452162584   13.41943574977844
H         2.43583912244338   16.25549163842516   14.25635170970914
H         3.01723256972765   17.75065717203021   13.52827262632950
H         2.46001347341918   16.42486635810458   12.50206688746890
C         3.75141095324628   20.61609389588233   20.55723456382495
H         3.16530467941841   19.70292199977942   20.47694517617813
H         3.08628502834292   21.47064501108599   20.44368354970464
H         4.47964015424683   20.63786907448443   19.75198186245913
C         5.79077886486108   16.98540837828779   25.54659232383673
H         5.00817391589382   17.73571060683702   25.61288927444868
H         5.58639055183541   16.21770193670148   26.29009349017897
H         6.73912634144804   17.45909226524923   25.79124547703548
C         3.71323733418810   26.45039936114332   17.37443741747665
H         2.97899385212523   25.92831398079760   16.76757723322307
H         3.27496213329614   27.39187685304292   17.69927486269820
H         4.57778665371813   26.66897859904759   16.75110138642871
C         2.27850888763430   21.89119679820480   15.64628814603016
H         1.65838922195463   22.11514707864043   16.51147888493928
H         2.43153706899240   22.80036705540783   15.06867015671025
H         1.73538086170491   21.18457117864388   15.02189320266347
C        12.25567598369629   17.10304562663414   12.43820150727321
H        12.88189117633444   17.98887694307039   12.49829649111797
H        12.32086485847632   16.57506539182144   13.38716219287675
H        12.65021215130863   16.45842370471315   11.65533205728997
C         3.38247803937428   20.67229596992837   23.01415214724055
H         3.82942919561458   20.73124272306121   24.00432260350024
H         2.73708726364572   21.53891736981462   22.88530242992228
H         2.75997573873949   19.78231475397132   22.95319530690459
C         4.78858887954012   24.32701079414866   18.12538145733258
C         2.90489488040382   25.27057283692820   19.44210166347423
H         3.20146474550939   24.66833136497848   20.29821808329122
H         2.42956747450722   26.17937671515904   19.80580539352854
H         2.17280248802440   24.70887382163088   18.86850719025525
C         5.24628680329435   21.98854717069070   22.02908479037973
H         5.76291561674751   22.04089895785636   22.98600236848892
H         5.97911290224674   22.05566291057298   21.23049970331805
H         4.57032572747454   22.83830596122822   21.95265121874412

