71
CSD_code = SALZUD | q = 0 | S = 0 | Stoichiometry = C28H32N2O8Pt | MND = 4
Pt        7.16554420314762    4.93303549778070    3.06355699723508
C         6.67643283113990    2.95005258114883    3.04478844660706
C         7.90160926117899    2.03193025761854    2.93960423671231
C         9.21999261468605    2.74600690785422    3.09012890546839
C         9.10586958791372    4.27841899001197    3.01170271378764
C         6.95674797263743    1.98771156903748    4.15312939344327
C         6.09949171738572    0.75624340952012    4.35382988892365
H         5.21825212230062    1.01403304552359    4.93818841217550
H         6.67107256432065    0.00219928766036    4.89313616366436
H         5.76591430151964    0.33968695510621    3.41024464627520
C         7.45436769143073    2.53216036090178    5.47769120444646
H         6.61001989239417    2.62611766378828    6.15939103445031
H         7.91263694791661    3.51222090580031    5.35878387754844
H         8.17401447494058    1.84779129133183    5.92279705173228
C         9.76587595200209    3.53360096680373    1.89311740438851
C        11.26669195597964    3.57277085747613    1.69098800893452
H        11.52413338170434    4.38413913146276    1.01256370272236
H        11.59600504704130    2.63301201167802    1.24903382970467
H        11.79791395810380    3.73517628340801    2.62087655398171
C         9.03839260952119    3.45881806392025    0.56589611394631
H         7.96054611685707    3.51671345750236    0.69833813394835
H         9.28571357964488    2.53704294776092    0.04388235220065
H         9.35541584841582    4.29508664827048   -0.05666132980899
C         5.52048640123370    2.71560096331757    2.14315331873236
O         4.41712026981758    2.33957470038962    2.46752293305356
O         5.79286013036801    3.12975574376707    0.88401584850666
C         4.76643534755167    2.91826798811642   -0.06907213422746
H         5.12363569900138    3.34164865270418   -1.00484064888618
H         3.84223092689013    3.40761560104768    0.24827891178149
H         4.58122142490205    1.84779495381759   -0.17770204486364
C         7.85697904823575    0.91762684089320    1.96745900586433
O         6.85183746920097    0.44142800721079    1.48950093053713
O         9.08363046144292    0.49240173953947    1.63452776894977
C         9.13276546555536   -0.59405955458776    0.72678227316807
H        10.18424439925924   -0.76009014523803    0.50578816909414
H         8.57814666813533   -0.35551436506073   -0.18448339075406
H         8.69462572319967   -1.48658535531155    1.17830482740411
C        10.14118199315189    2.08586417976852    4.04673689528869
O        10.10431335889015    0.91652425028053    4.33998415702101
O        11.02592110581767    2.93570420799677    4.60972474505746
C        11.93213580854807    2.36480788479887    5.53832519812331
H        12.68169304590597    3.12622178051436    5.74187431309337
H        12.39515135065353    1.47062109426167    5.11601090370943
H        11.40848652656164    2.08863759045281    6.45666901234759
C         9.89422025107172    5.14692409627800    3.91467475878748
O        10.90819981236624    5.75805602154282    3.67122902017682
O         9.23094005909030    5.32373108817827    5.09185744397239
C         9.86718304882550    6.16156077344290    6.03849002951263
H         9.22625695518819    6.17903374116098    6.91653640952530
H         9.99244018553765    7.16989057129015    5.63545019136773
H        10.85155083541542    5.76276191756508    6.29147391178428
N         5.31626292340248    5.70575251031252    3.55125385039597
C         4.31337419244080    5.02833808620582    4.10895133323899
H         4.33562997236419    3.95128676710281    4.01319379963512
C         3.26018259942625    5.65097749467311    4.75552646129928
H         2.46902470777188    5.05721830917995    5.18332427803972
C         3.24486285989480    7.03599470338086    4.84013478430644
H         2.44246152873837    7.55345732628923    5.34291400910219
C         4.28641293543375    7.74361210544073    4.26866529673144
H         4.31440328082654    8.81912667596164    4.33815978599294
C         5.31202725592790    7.05461444088130    3.62545424637744
N         7.52861389895223    6.94240093631300    2.76341901623308
C         6.45670794175294    7.72594863389644    3.00196412648388
C         6.45196214535978    9.07381192284390    2.64848254916146
H         5.57884879379647    9.68025307490574    2.82744213138547
C         7.56806702264308    9.62209739840118    2.04394389053732
H         7.58340761572981   10.66476955680746    1.76610590425490
C         8.65915994680117    8.80121513796916    1.79337780528696
H         9.54830482510716    9.18431696117378    1.32003829180059
C         8.59399311942896    7.47006084248951    2.16340946350378
H         9.43364403021223    6.81067305628151    1.99225847562617

