67
CSD_code = SAMBEQ | q = 0 | S = 0 | Stoichiometry = C22H34N2O8Pd | MND = 4
Pd        6.71653420293111    5.18622415532712    3.68279257368810
C         6.87087608979557    3.69890695728296    2.35297107323215
C         7.83961371638661    4.30001795956968    1.44640526760529
O         7.57728580493138    4.87381424940382    0.40545042246107
O         9.10342994446687    4.31783257960495    1.96475049530720
C        10.13058041546627    4.78563940800818    1.10738377183010
H        10.96343561338503    5.08173050896464    1.74280121959509
H         9.77708961862806    5.62950875564551    0.50916900235280
H        10.43867638565530    3.98032825004050    0.43709696045030
C         6.88823638564167    2.29524073859222    2.94760155274674
C         7.91221114701587    1.32838911873414    2.49667999809660
O         8.52627868828023    1.37154276866287    1.45514199207300
O         8.12067290020638    0.36591179634233    3.41267851075070
C         9.09336193060554   -0.60621893289741    3.07281865910113
H         9.20583537374242   -1.24485321822892    3.94566075657794
H        10.04211701275140   -0.12541560425897    2.82180506394153
H         8.76287148986507   -1.19248720447568    2.21244270809247
C         5.80106478706340    2.76127456480738    1.94674356461910
C         4.38861680753614    3.00821531396429    2.43638142898383
H         3.85979429883631    2.06921002615744    2.58554923141663
H         3.85636826985537    3.58107239668804    1.67692564571871
H         4.38616053046839    3.57455198361318    3.36760157447454
C         5.81976873364082    2.18102786922337    0.54800814415703
H         5.22743015473298    1.26785957658459    0.51647604302549
H         6.83139368099468    1.95933757442256    0.22509961196899
H         5.39444088060973    2.90237632980076   -0.14717538762197
N         6.66036025197458    6.95294272625551    4.91734025486044
H         6.60673427994998    6.84675650787865    5.93033825688486
C         5.43495514885140    7.54785316681218    4.38479005283976
H         5.22220857249592    8.52009771047105    4.85973643083504
H         4.59969124946157    6.86851267638131    4.59032750821778
C         5.61267437585778    7.73283143802277    2.85850228448921
H         4.72989154905715    7.37083236639588    2.32468320355860
H         5.75406691435705    8.79951130251651    2.61640337445235
C         6.56299340836004    3.69894956131179    5.01278338535675
C         5.59430787347287    4.30017831118773    5.91931869334397
O         5.85657277850473    4.87367523969530    6.96046425979021
O         4.33050611032351    4.31811587046605    5.40087926367362
C         3.30323290787543    4.78578619752237    6.25820720921747
H         2.47092496613366    5.08313727064867    5.62264252232245
H         3.65708116723870    5.62879961044338    6.85741508462572
H         2.99422090577166    3.97996691747445    6.92746358678497
C         6.54554950160974    2.29527766963348    4.41814753981591
C         5.52153163682527    1.32847521809161    4.86907627607874
O         4.90750372613542    1.37166360184257    5.91062916973178
O         5.31311045643834    0.36591005142318    3.95315440015073
C         4.34043581855992   -0.60622173160308    4.29305743717614
H         4.22795961995272   -1.24490309817918    3.42024922972524
H         3.39167536350339   -0.12541123392139    4.54403630183140
H         4.67092508684986   -1.19244354160612    5.15346326586944
C         7.63276727163977    2.76125277240654    5.41898793194798
C         9.04523481980866    3.00817853593390    4.92936823414493
H         9.57426273236485    2.06914541311412    4.78104573708340
H         9.57717391674538    3.58177992851156    5.68849567273161
H         9.04767273043188    3.57377246279122    3.99769408553348
C         7.61404055294102    2.18092912236419    6.81769759187325
H         8.20608853852360    1.26756765611449    6.84916154912751
H         6.60237712252936    1.95955537174317    7.14071252204761
H         8.03968171568039    2.90211570984577    7.51285545387385
N         6.77321744948793    6.95297148878854    2.44849507788524
H         6.82683428867753    6.84674310819573    1.43550101056254
C         7.99865764666207    7.54780421231111    2.98104948697268
H         8.21143434376845    8.52004838865976    2.50611363290225
H         8.83389734372279    6.86842660467516    2.77551416533428
C         7.82094677582376    7.73275674156712    4.50734034287414
H         8.70370627575470    7.37067233734154    5.04114462332125
H         7.67964794238464    8.79944841489189    4.74945400550708

