42
CSD_code = SAMCER | q = 0 | S = 0 | Stoichiometry = C20H18FeO2Si | MND = 8
Fe        6.19568471376878    2.35300725103297    7.42274698916812
Si        5.05391213895094    3.84580180769345    6.19569038827116
C         6.51128727918431    1.42026798214534    5.98733301286917
O         6.75378492538657    0.74648334750795    5.08839175660263
C         4.70807521884415    1.46373510839719    7.62033993026653
O         3.76708537188604    0.81679118836984    7.74165014330304
C         6.23104696434069    4.68001671981484    4.92364366579212
H         6.58132054809988    3.95101703808995    4.20106691176393
H         7.10171451499334    5.11363388483406    5.40302282865474
H         5.71734530997168    5.46399133227934    4.37706219185969
C         7.06383432183864    2.04899792201955    9.43889918536044
H         6.78908227012549    1.30232410780265   10.16593768371822
C         6.54355070861634    3.36908956891853    9.36996803297304
H         5.82997322764303    3.80101726265605   10.05229671760781
C         7.28450917329660    4.08202892241358    8.40245501974842
H         7.20181342785865    5.13603420728815    8.20021659495833
C         8.20432853784335    3.18592355679004    7.81485176658258
H         8.98227648200661    3.45039689619765    7.11698408883161
C         8.08986475693655    1.93565398485062    8.48284694781748
H         8.74248228748209    1.08876505006082    8.34712976528943
C         3.49068763494221    3.31518221955217    5.23470873257547
C         3.38500671688020    2.05574126712762    4.65618296565991
H         4.20293457353199    1.35831239086384    4.76121406369674
C         2.25187754420627    1.68002596042369    3.95773500264891
H         2.19064419315508    0.69503851988924    3.51783945354318
C         1.19538434537049    2.56497143978300    3.82481112223817
H         0.30797391609160    2.27385987008455    3.28159919415934
C         1.28219424689420    3.82375040456942    4.39389977950278
H         0.46062886940724    4.51908818957143    4.29641904030594
C         2.41914893278049    4.19071503358000    5.09103655691440
H         2.47751368445581    5.17216193044785    5.53948111078100
C         4.39833518728369    5.14208038311193    7.43388193427588
C         3.51561678605970    4.74123683029463    8.43243799189584
H         3.21369125428617    3.70397135683816    8.47420464126818
C         3.02409860405678    5.64188941925491    9.35849669066609
H         2.33716464789767    5.31166623223573   10.12493024738356
C         3.41405018356570    6.97065827462711    9.30487820897561
H         3.03388331311051    7.67792906091542   10.02785384015596
C         4.29169107678341    7.38729718760548    8.31891026612803
H         4.59698734163858    8.42322871504614    8.27032789982759
C         4.77667772632084    6.47804526143689    7.39448969377470
H         5.45743704221355    6.81327291356915    6.62562794218425

