39
CSD_code = SAMKIA | q = 0 | S = 0 | Stoichiometry = C20H10Cl3MnO3S2 | MND = 8
Mn       -1.20891683554461    3.40577049097543   13.75859267096656
C        -2.94834360839213    2.98293825593245   13.94536373581953
O        -4.01965736255277    2.60891657606563   14.07207717908872
C        -1.22870132162161    4.72629747166651   14.98067794984319
O        -1.14450784296248    5.51772134597392   15.79935071731538
C        -1.46180480575210    4.48142964416985   12.33903762830467
O        -1.53761569925066    5.10971287897186   11.38831182529004
C        -0.73299834377603    1.31373462409248   14.16472123668037
C        -0.45990360707079    1.61243130612969   12.79747426366318
C         0.55928219378065    2.61771548085939   12.78267039096614
C         0.86882540744251    2.96139195055880   14.12173144060467
C         0.06712043897609    2.14676568539968   14.99062347633476
Cl       -1.63375138425269   -0.04518158185564   14.71390128917263
S        -0.97865116700209    0.64952377675205   11.40082300884180
C         1.59630117517001   -0.29433473181506   11.75608731978009
C         2.82500263003850   -0.72798388218375   11.29413286104863
C         3.06957661900452   -0.80745151823676    9.93314003658344
C         2.07988644298502   -0.45405214670568    9.03068214773465
C         0.85263973183219   -0.00418274875493    9.48298416784582
C         0.61951019886182    0.08139548386280   10.84701788312391
Cl        1.50323549149293    3.07157739549621   11.41494827548973
Cl        2.26136350634938    3.86172536392206   14.59697345734897
S         0.29546410606703    1.96829987791574   16.74064160958707
C         2.83786852227425    2.07475107770775   17.73855503590874
C         4.18265523955679    1.75173747998419   17.76264895936561
C         4.71756885308662    0.91707402934712   16.79524446036473
C         3.90093534442894    0.38756219966627   15.80977527510694
C         2.55266815585619    0.69201103167747   15.78614189425194
C         2.03000561214949    1.54859187221777   16.74253217919282
H         1.39803463965244   -0.24925645312706   12.81751517744770
H         3.59022738281271   -1.01109504640463   12.00163473813196
H         4.03034853013257   -1.14729245421446    9.57725982069966
H         2.26554370550654   -0.51868022764678    7.96917481451132
H         0.07696815385660    0.28516956725083    8.79082019304861
H         2.41061438905367    2.73292979318284   18.47923969406872
H         4.81557683175927    2.16221435506845   18.53484584732357
H         5.76971531886342    0.67613837241094   16.81001943924794
H         4.31143796302009   -0.27160787176276   15.05934807437773
H         1.90967539417421    0.26489127544544   15.02977982550745

