50
CSD_code = SAMKOG | q = 0 | S = 0 | Stoichiometry = C26H15Cl2MnO3S3 | MND = 8
Mn        3.52928697413705    3.52159068481555   12.28294069045778
C         1.66918872233272    3.69135498072834   11.20457547566987
C         1.47884424744087    2.84546320961643   12.35032922324969
C         2.32134546930009    1.71410932772459   12.19405582719912
C         3.04117440586743    1.84270925674586   10.96747698099055
C         2.62072046544987    3.06461185377238   10.35961640885319
S         0.62859393538511    5.06836372108648   10.77340230495430
C        -1.99977315033628    4.41438070201936   11.23505776375843
C        -3.15848521585202    3.69119229098757   11.01469466417078
C        -3.18451480001970    2.69465272805346   10.05390221254235
C        -2.05144489896055    2.42206645673318    9.30555447529953
C        -0.88755526334503    3.13880412604454    9.51661560736280
C        -0.86968802724621    4.12748119745863   10.48776349680408
S         0.20358670480083    3.04503059716532   13.57025650250153
C        -2.15078105893346    1.77693433509816   13.86566526973107
C        -3.14598517727287    0.87160281287411   13.55680354984895
C        -3.00442528101177    0.02143468647082   12.47127581736348
C        -1.86327309446386    0.08772048571520   11.69321781332881
C        -0.86359236724667    0.99675336240765   11.99077409149250
C        -1.00538247777994    1.83744515515346   13.08035566445556
Cl        2.24185768689502    0.26885524612274   13.13293690852625
S         3.99655619092322    0.56142983059989   10.19723192680746
C         1.72121827859548    0.43115745339134    8.63322377019962
C         1.06021706080991    0.33133824512921    7.42306507342003
C         1.77776304538344    0.20752160361096    6.24480571360171
C         3.16223855182424    0.17830930217822    6.27770022349517
C         3.83308576703086    0.29209310800472    7.48199972682408
C         3.10741718472267    0.42860724985032    8.65532228824414
Cl        2.95520699456634    3.54488849421746    8.73525556054027
C         4.63784854907104    2.68386415524278   13.42430975464937
O         5.28734732031659    2.06075750836715   14.12781127132307
C         3.15993572048384    4.89329367103039   13.38752248807053
O         2.82145709635552    5.75008703210193   14.06146848069157
C         4.83707902820123    4.37795838713190   11.39418901576286
O         5.61860241588366    4.89091269946497   10.73715980913880
H        -1.96160677255551    5.19126815022777   11.98288887675954
H        -4.04053474910871    3.90460513922878   11.59906890266168
H        -4.08907217138809    2.12995963242451    9.88630423937601
H        -2.07471713574119    1.65130113105697    8.54952981140007
H        -0.00247174991623    2.93726888141536    8.92971384164680
H        -2.24717185860847    2.44097603890376   14.71122742781967
H        -4.03425992356878    0.82727341797654   14.16878272788908
H        -3.78037329330289   -0.69033267873778   12.23435707442060
H        -1.74247469141745   -0.57076212934889   10.84573752385456
H         0.01611784326520    1.04515053895534   11.36756015164890
H         1.16147276495956    0.51015224204833    9.55446440752040
H        -0.01956609139842    0.34345578852341    7.40315481665251
H         1.25692483564047    0.13100976480610    5.30237795575396
H         3.72455253377996    0.07695030016400    5.36174858239969
H         4.91150945604538    0.28294782524447    7.52064780886975

