32
CSD_code = SAMMUO | q = 0 | S = 0 | Stoichiometry = C11H15CoOP4 | MND = 8
Co        2.76973237981967    2.58144421695444    0.68528656820758
P         1.11358833414293    3.56610173078624   -0.55749594377270
P         1.12615359840117    1.18164712523572   -0.08584798742950
P         0.50637497717450    2.04053237705061   -1.99093965040571
P        -0.69426446450342    2.39068287711404   -0.18977740415263
C         3.82867871972451    2.31973304596832   -0.67561343586004
O         4.47769071034150    2.14269656244785   -1.60477448784353
C         4.03984081507004    3.60234504711474    2.05472538918189
C         2.73517806691571    4.08184146643687    2.25907268750700
C         1.90693639668368    2.94548879681483    2.54258341739066
C         2.74428418766033    1.79329138842506    2.71406165223375
C         4.04550484913222    2.16781595533850    2.34021324745836
C         5.27618855372746    4.42604006835577    1.87395272547788
C         2.26439696134204    5.50063864827658    2.25835842630848
C         0.48186170585146    3.02782586741541    2.98840934481465
C         2.28360613862410    0.47927926342424    3.25802862812977
C         5.28826186578177    1.34674221100348    2.48563055505214
H         6.03089186641793    3.88669686237032    1.30647056009031
H         5.69695883555557    4.66799641922455    2.85200956840241
H         5.05799086379409    5.35626518829598    1.35497956306200
H         1.37754369257281    5.62168938507288    1.63378620452771
H         3.03675174936066    6.16778809665527    1.88533251417351
H         2.00369121183319    5.80403150885195    3.27338509686650
H        -0.04981421603696    3.82369864806008    2.46723203751188
H         0.44753069850913    3.24259774554756    4.05825576481979
H        -0.04070152654572    2.08720402869274    2.81578789173854
H         3.06891124353923   -0.26842197265901    3.18842634498946
H         1.41150278200806    0.11059015920939    2.71464085125299
H         2.00241574632655    0.59167485145204    4.30624066993638
H         6.03865551074362    1.63235889060213    1.75224927184834
H         5.07736483875533    0.28702099629718    2.36390644861588
H         5.71109290727600    1.50176254415873    3.48032347987038

