99
CSD_code = SAMMUQ | q = 0 | S = 0 | Stoichiometry = C37H55N2O2P2Rh | MND = 6
C         3.47471065982811   13.49936808523857    2.70163353551066
C         4.57053287916092   12.74844271261074    2.21731284364750
C         4.37553186517841   11.69508540056274    1.33288695370274
H         5.22522910949692   11.10204712109383    1.02343501871749
C         3.12112608641983   11.39067501931007    0.83504001042248
C         2.06238139550983   12.22392178292863    1.19778517850008
H         1.08903881341715   12.06013105641378    0.75610485623688
C         2.22657771525106   13.24903306952532    2.09878811420407
H         1.39168713359096   13.89505155452870    2.32607259657763
C         2.90173895233973   10.23930110711638   -0.10052553267751
H         3.84478069546685    9.76356001059524   -0.35970831893673
H         2.41764408974700   10.57525525742454   -1.01706382736046
H         2.25565992295566    9.49233308278795    0.36124788295186
C         2.66844462748028   14.86274239631910    4.50300839336609
C         2.82105934513858   16.08423877197354    5.19738971894202
C         1.85725696725832   16.53479257522913    6.08534049173237
H         2.00651940927922   17.47110880688229    6.60544398830517
C         0.71249906912418   15.79570243088966    6.33799069874442
C         0.58473447636492   14.56198527340678    5.70406399388206
H        -0.27286271318384   13.94242794818229    5.92768174991482
C         1.53178862717120   14.09744844724074    4.81900236413265
H         1.41959574757448   13.10912393252035    4.39875675819934
C        -0.34663569977280   16.28537026423740    7.27999143413943
H        -0.01335997253162   17.17397126600290    7.81094512146836
H        -0.59691114237585   15.51656841826633    8.00964483109447
H        -1.25715614405626   16.53315985056806    6.73320518105057
C         5.75313834610180   14.23606889649465    5.67905527507242
C         4.80839877594994   13.45799957602791    6.33685809728756
H         3.83457870938240   13.27837173649564    5.90962781629935
C         5.09506360904136   12.87742771261723    7.56440794210125
H         4.33967246961407   12.27939620433561    8.05459076023027
C         6.33271459751596   13.05055866888072    8.15502950947793
H         6.55349327487173   12.59319030338587    9.10852173883651
C         7.28690881529224   13.81569353035980    7.50725002056951
H         8.26130291949223   13.96029655155756    7.95365114811624
C         6.99714981443751   14.40404377350788    6.28652157241973
H         7.75507595821161   15.01100057944908    5.80673966478360
C         7.19737431106873   16.77027371674108    2.75775824985382
C         9.45984946015180   17.62791797568055    2.87640473750540
H         9.30010251969784   17.67716637455112    3.95705451006509
H         9.95712346351146   18.54450182409184    2.55133234648744
C        10.32144848566771   16.40876108544118    2.55054334718910
H         9.82899925154333   15.51184238585232    2.91826202374113
H        11.29337902853450   16.49593857996948    3.02923790408459
H        10.46623975300641   16.31701932507935    1.47576896659262
C         7.95652920626245   18.22788498117325    0.96745354608640
H         7.11862164960765   17.72717737218867    0.47653189243709
H         8.85287545050858   18.11215866033240    0.34890629363301
C         7.63009496528129   19.70927324681559    1.14768265101511
H         6.72174978646116   19.81852653481505    1.73470647665184
H         7.47832538542819   20.17767306356338    0.17869413228596
H         8.43854135783575   20.22510593464565    1.66152391846800
C         7.03074671452552   13.78943380593895    1.05406818078086
H         7.76601635443083   14.56249216654116    1.31646432071810
C         7.76498174417535   12.66237949596461    0.33207391510533
H         7.08707394871432   11.85299673193839    0.07224598047233
H         8.59007672096653   12.26340301011073    0.91651426821692
H         8.17750249211469   13.05548884345155   -0.59728738521621
C         5.99543125771113   14.41292157419914    0.11868036306818
H         6.48805420691314   14.82723000882178   -0.76063185580376
H         5.46358920583745   15.21724511342869    0.62256806445338
H         5.27191846286841   13.66833341649982   -0.20795179825165
C         7.12941466688589   11.85981706080120    3.27456271475353
H         7.26953275703039   11.21554800135944    2.39949657877005
C         6.32720070827345   11.08531151368103    4.31274389380059
H         6.84798610368146   10.16394586166789    4.57098666938390
H         5.34267453085512   10.82912737051775    3.92575275529842
H         6.19850490769248   11.67295657343789    5.21716038983932
C         8.48605403362200   12.28152110702222    3.82977652758879
H         8.34341524463696   12.88193998984250    4.72553562621658
H         9.04179724262567   12.87644206023400    3.10610196645131
H         9.08254353198072   11.40740427268155    4.08901108682042
C         4.85378382640046   17.86950968747295    6.35704511395401
H         4.06885030780275   18.60690691869879    6.55885558435811
C         6.17616246063998   18.57966807400474    6.07789018510139
H         6.53964644857704   19.08129919258605    6.97394803258643
H         6.06736901989742   19.32211023807437    5.28823300507600
H         6.92116444595799   17.85000935470847    5.76169708337777
C         4.97632986768642   16.94067258739565    7.55956271465146
H         5.81978330410945   16.26735344996426    7.43411790346225
H         4.07826484185923   16.33791252299523    7.68148733513209
H         5.13028104145088   17.52329660976748    8.46727720831419
C         3.86621424490335   18.25138937763825    3.61663903131809
H         4.79691014597645   18.66914205785229    3.21486367239419
C         3.11025448127186   17.57600544817210    2.47414565631570
H         2.16716134653002   17.16399968161228    2.83123890415321
H         3.70847020039092   16.77150114320986    2.04995652369263
H         2.89747301501391   18.29567456257022    1.68457641686417
C         3.01984580408172   19.36782406366822    4.21978225791819
H         2.67259297119824   20.02449583310742    3.42243406143865
H         3.58191440561417   19.97449548969326    4.92607342278729
H         2.14465057034711   18.95591972942747    4.71860780068695
N         3.67187418612120   14.44569504094053    3.66688684987686
N         8.16768366086469   17.56198957210582    2.23108153910862
O         7.43587870176456   16.16410172757555    3.84603952209562
O         6.09173342640184   16.65241622827963    2.17377816104093
P         6.19977282445912   13.36967734471653    2.69566700114351
P         4.38016537820553   16.91917457031065    4.83010495221561
Rh        5.54159095511085   15.19740728207863    3.90484922082303

