95
CSD_code = SAMNAX | q = 0 | S = 0 | Stoichiometry = C39H50NO2P2Rh | MND = 6
C         1.75149787343473    1.15924004558090    3.64062143106580
C         2.96117760510879    0.71213587697100    4.23041320708636
C         4.12822173112215    1.45086751220983    4.11464065232806
H         5.04071420466803    1.09353421905852    4.57355649789278
C         4.14769840927776    2.65843043888413    3.43290810630209
C         2.95147996273792    3.12273034497252    2.88841996102444
H         2.94120698191561    4.08121644214856    2.38671608491896
C         1.78243106529303    2.40336386818451    2.98564509686593
H         0.86558964516048    2.81615284664924    2.59048556604240
C         5.40745960848787    3.46334684409585    3.30205137409744
H         5.28567368577916    4.44583844108638    3.75877516431389
H         5.65657049734007    3.61555915149126    2.25179016872662
H         6.24243799573004    2.96027773842624    3.78468996623516
C        -0.46344186693250    0.46329168553876    3.01100682967935
C        -1.71410372106960    0.06464378420818    3.54273264528991
C        -2.85085543592633    0.03370674687303    2.74909610082870
H        -3.79402291743192   -0.28626298809874    3.17171755266471
C        -2.79959479939071    0.38563142209407    1.40964092240339
C        -1.56539904857622    0.75349838110836    0.87550529580379
H        -1.50230676044389    1.00041867361472   -0.17571261368066
C        -0.42496715531763    0.79059144833539    1.64394484802862
H         0.52186000692743    1.03385444798780    1.18448762050983
C        -4.02425412369955    0.35412579857968    0.54333210565691
H        -3.87585470171923   -0.31357929252524   -0.30512786726492
H        -4.24032203080799    1.34751621410843    0.14945143629572
H        -4.88959108351524    0.01057852935043    1.10559186070472
C         3.38171775051584   -2.12733898320493    3.88514294024342
H         3.17839407394277   -3.10563996725609    4.33775124467272
C         4.86503431323838   -2.00952791037345    3.54746809079117
H         5.10286579281711   -2.68425014049872    2.72581808155683
H         5.50133386429158   -2.27553666094552    4.38791717199931
H         5.10128215168345   -0.99624632059060    3.22729235232147
C         2.55311506809741   -1.99847441882833    2.60987447182100
H         2.77367748191196   -1.05627997500469    2.11081387410419
H         1.48816986038588   -2.02558208629724    2.83428572593545
H         2.78413491489225   -2.81347556508302    1.92539460292852
C         4.13329573254755   -0.86699999003096    6.40888688968451
H         5.08885029555486   -0.71958410939181    5.89376692685263
C         3.93267582073408    0.27443343757259    7.39952313930476
H         3.07574487641206    0.07191256037819    8.03899769027367
H         3.76567261191841    1.21387334031086    6.87372519268340
H         4.81065692962032    0.38536509894385    8.03575785035385
C         4.14041851924577   -2.21166151645808    7.12887506690284
H         4.87675946521703   -2.20680779743510    7.93190524564435
H         4.38199270529781   -3.02483365109468    6.44785628452287
H         3.15976658960582   -2.40803469418918    7.56124840343615
C        -2.37851020435489    1.18028902024982    6.12006154836568
H        -2.15681546817199    1.08599998367709    7.19252483868601
C        -1.65429223584255    2.40760963576246    5.56807537512233
H        -1.94421926628934    2.57762144604485    4.53208782549222
H        -0.57441196417600    2.27825134160791    5.60142686229067
H        -1.90803697846201    3.29394468455794    6.15023716238931
C        -3.88307338068756    1.34737091721707    5.93183418125266
H        -4.19148624333659    2.30619275024462    6.34841014622865
H        -4.45043639731932    0.56776383799868    6.43398950978156
H        -4.13431048064638    1.34660012704578    4.87316997423632
C        -2.95611999807464   -1.65330285525356    5.56084851695609
H        -3.91205573017931   -1.25556622357223    5.20309913564597
C        -2.59520788193853   -2.88756296774022    4.74436826407594
H        -1.64954280227423   -3.29794449331145    5.09334285553053
H        -2.49026145702833   -2.63443817893695    3.69077655596055
H        -3.36589168764567   -3.65016829661407    4.84688640935639
C        -3.06288598461646   -1.99523175213185    7.04365495067212
H        -3.82097114823064   -2.76139182201381    7.20194089905047
H        -3.32959283266170   -1.12269993401764    7.63752765898947
H        -2.10878186935459   -2.37445691199122    7.40570660658806
C         0.49718914162408   -1.63335495261573    7.38475473913728
C         0.48791424689586   -0.69794556093588    8.45039034778254
C         0.41945647902025   -1.08488199046601    9.79199567039902
H         0.41242144942091   -0.32693568567820   10.56192816646173
C         0.37302246212960   -2.42255871228232   10.10880691622121
H         0.32453403662594   -2.73960011326990   11.14008257310840
C         0.39481048951707   -3.36752555081587    9.08669511876317
H         0.36622027349295   -4.41938183242947    9.33680532675457
C         0.45069324711434   -2.98244627946759    7.76066977221452
H         0.46506972453162   -3.74745874076374    6.99539845160811
C         0.57543308326264    0.69137001273414    8.04182766544175
C         0.40885181350901    2.95748179649289    8.69482345052165
C         1.33987444460890    3.53786598315402    7.84626051413810
H         2.10575664582789    2.93858195792505    7.38090837919274
C         1.26987135640764    4.89750058869571    7.59659988779171
H         1.98894572471120    5.34883937228875    6.92986956682724
C         0.29148342997863    5.67345146395672    8.19299039682882
H         0.24353620234214    6.73297710460830    7.99169900355602
C        -0.62560945481391    5.08847488275516    9.05075146255380
H        -1.38899530476999    5.68941901562938    9.52192208999536
C        -0.57277543260123    3.73041239737443    9.30188120514834
H        -1.28142525465613    3.25468242358829    9.96236766329006
N         0.63091577350797    0.40903784080219    3.81800305382488
O         0.76406092361513    1.01600967257538    6.86941155480567
O         0.41591923588992    1.60447575727128    9.01215661514932
P         2.78249225485021   -0.85502723628855    5.12383530046213
P        -1.65367263546164   -0.35201816092634    5.30520069527169
Rh        0.56060696877994   -0.75462152219680    5.57315665843579
H         0.36303823984415   -2.02562351166635    4.82815721764391

