48
CSD_code = SAMSAA | q = 0 | S = 0 | Stoichiometry = C19H21Cl2N2OPSTi | MND = 8
Ti        1.57159995317651    2.28805520142973    2.33199448453207
Cl       -0.30591377134135    1.56049890013344    1.43225817584583
Cl        1.55461023141695    0.62060263409082    3.81029734289104
C         2.89611117371515    1.30576088935074    0.64805449825857
C         3.68380081298200    1.31910484359639    1.81333079164296
C         3.87203705358022    2.66289860011063    2.20464333987181
C         3.22213470938090    3.48495040802472    1.25411387617500
C         2.61763110317181    2.64191962926962    0.29423731710169
N         1.04145690500780    3.44792514406505    3.56148156929624
P         1.09401910778156    4.95181430212143    3.97140974429354
C         2.76931626277579    5.64533555849001    4.11642628293819
C         3.66500607183983    4.92437278122839    4.89809713565943
C         4.97401047970302    5.35397194569154    5.01771426025565
C         5.38788641141940    6.49779663686876    4.35104746414509
C         4.49554158475709    7.21197512570512    3.56785164036490
C         3.18314716892804    6.78732320428621    3.44796987116232
C         0.29619320726026    5.20571261556058    5.58500309381381
C        -0.15574891640138    4.08281134682439    6.26321213189811
C        -0.77463954230992    4.22788306714292    7.49245720578208
C        -0.93837183071898    5.49225090940654    8.03620966435769
C        -0.48551265779249    6.61283153533631    7.35586742884336
C         0.13501442953310    6.47211360983156    6.12768778212235
N         0.27030367425805    5.98370932754792    2.92058915158005
S        -0.43804114624776    5.20280202296196    1.78240696967782
O         0.38933177675363    4.37264527981016    0.94385861954869
C        -1.84399999596701    4.24732613718831    2.38799624474409
C        -1.19742142678576    6.49548054128361    0.76343569983596
H         2.63516632355080    0.42807409344647    0.06846925276738
H         4.12219528441158    0.45418834045592    2.29529352058877
H         4.51984851669605    3.00619425855338    3.00230813417280
H         3.28069572244570    4.56576521500606    1.20280604391568
H         2.10888579302441    2.97112226163766   -0.60333427234837
H         3.31469386464330    4.02680255849732    5.39551677069551
H         5.67451462956253    4.79937164105522    5.62496596951391
H         6.41138949778283    6.83106348678504    4.44010346264983
H         4.82531138724433    8.10069775345145    3.04936801040194
H         2.46743555416361    7.32797532425088    2.84556591673277
H        -0.00380563782615    3.11021217276633    5.80744200386430
H        -1.12670142567897    3.35847926282069    8.02767850105793
H        -1.41983938514441    5.60649195672362    8.99650781657618
H        -0.61585918100325    7.59466977246183    7.78759338364136
H         0.49527610236946    7.32912952232875    5.57702301345208
H        -2.52729903760972    4.92517188583341    2.88487617228759
H        -1.44238033741006    3.51195096375699    3.08573506861194
H        -2.29966566431829    3.73806840576769    1.54681030871049
H        -1.81514903585834    6.02215184655763    0.00951188006127
H        -0.40068770203120    7.06003301473238    0.29353218197937
H        -1.78162809889287    7.13861406575535    1.40887507403058

