65
CSD_code = SAMTUX | q = -1 | S = 0 | Stoichiometry = C38H20CoN6(1-) | MND = 6
Co       10.83998248842610    0.00020960601964    3.77287953784828
N         9.59928084824262   -0.91167286846035    5.06823119132478
N        10.72266931810775   -1.58779341559065    2.54260634110068
N        13.23013825161822   -1.26120503249511    5.17724722486837
C         9.16631941747398   -0.41385429053979    6.25537876010006
C         8.28372042786960   -1.35102467664743    6.90925539689201
C         7.58709603360000   -1.33019704152932    8.10952269589636
C         6.81275821873220   -2.42781176392036    8.43133566946499
C         6.73028899980496   -3.52767776157723    7.57806351421174
C         7.42003638354207   -3.55728201774760    6.38169180418752
C         8.20058403711524   -2.45864566518868    6.04988135259590
C         9.03713584532442   -2.13880166334170    4.91731634152410
C         9.21321125463606   -2.99279278479273    3.85044219947646
C        10.00205206525501   -2.71937025723452    2.75431963522278
C        10.16271563371010   -3.63910043564996    1.65292121685936
C         9.65779438973779   -4.90316299480578    1.38172165315831
C        10.02977276052314   -5.51224613997373    0.19911880134980
C        10.88746174567260   -4.87911374300876   -0.69983927261085
C        11.39493363243134   -3.62136015337901   -0.43831608533199
C        11.02702554787389   -3.00177523865133    0.74790896473464
C        11.34897838285336   -1.72744994917029    1.34561248610666
C         9.49670341388897    0.80871204937502    6.79822150073221
C        12.32526769268741   -0.78558350833758    4.64422592594352
H         7.64382664229551   -0.48311058109129    8.77802542690122
H         6.25851574853862   -2.43947405249048    9.36016444990563
H         6.11374669565513   -4.36963570523329    7.86270880077607
H         7.34884438324713   -4.41463555088653    5.72781821053744
H         8.69754592808812   -3.94082928127777    3.87485888040951
H         8.99265080516228   -5.40287892754687    2.07131445209481
H         9.65210130661492   -6.49757178194055   -0.03867170539664
H        11.15704187526872   -5.38637623550391   -1.61639065814990
H        12.05900725891424   -3.13986573318270   -1.14176478709143
H         9.07140398327296    1.06474266248181    7.75679706288554
N        12.08168963233513    0.91159652417752    2.47814258068757
N        10.95828727546932    1.58766226853358    5.00374715618928
N         8.44968681968795    1.26031632153427    2.36813774558883
C        12.51457145599045    0.41379989266574    1.29096294429032
C        13.39703868747037    1.35103651737756    0.63701358373135
C        14.09357373926118    1.33023221125476   -0.56330198203146
C        14.86791937422259    2.42783515627969   -0.88512416862996
C        14.95039617170819    3.52771217083011   -0.03186437739254
C        14.26064968678585    3.55734023508646    1.16450559066751
C        13.48018280148033    2.45866810917959    1.49637700357109
C        12.64376122681070    2.13876193148992    2.62901714196242
C        12.46761292169011    2.99277297396740    3.69585492858016
C        11.67883344360466    2.71929333481603    4.79201296008877
C        11.51805000276695    3.63909011472582    5.89334621252929
C        12.02289472297661    4.90319836222562    6.16451014719269
C        11.65093740129766    5.51227543157381    7.34712651317140
C        10.79325443520738    4.87914009462584    8.24608544837719
C        10.28576728790555    3.62139200101563    7.98454572537613
C        10.65374431087768    3.00176386628499    6.79835704355511
C        10.33191710100303    1.72737099637739    6.20071377332627
C        12.18412610510448   -0.80874188581398    0.74807483030192
C         9.35495676880539    0.78617955321948    2.90122849438543
H        14.03685818394496    0.48312601381360   -1.23178140984738
H        15.42215976253205    2.43948065702413   -1.81395368612144
H        15.56694264966310    4.36966299331168   -0.31651907470250
H        14.33186840273714    4.41468930675568    1.81838210605605
H        12.98313948280594    3.94088417518825    3.67136924436786
H        12.68805345174812    5.40290902947444    5.47492847888026
H        12.02861354014347    6.49759892546593    7.58492495014393
H        10.52368772879398    5.38639820424004    9.16264442451067
H         9.62171864422048    3.13988389004133    8.68800738495402
H        12.60929536476455   -1.06469444342287   -0.21057870228807

