42
CSD_code = SAMWOS | q = 0 | S = 0 | Stoichiometry = C16H19CrO5P | MND = 7
Cr       -1.12058486529403    1.95347771878035   16.99747878736271
P        -0.14943259609333    2.13956698453707   14.93371491927151
O        -3.22302748005013    0.06386726796038   16.08370546479918
O        -0.42324159315417   -0.90734513978539   17.34393307817496
O        -0.95402116027163    1.86416832223973   13.56941660694945
O         0.98349606735740    1.06590954738561   14.53254014536890
O         0.60909485062185    3.56118643982978   14.62153651239649
C        -3.94747423625599    3.77273625919732   16.82262749359649
C        -4.22166330481396    4.42438143806345   15.64634670169418
C        -3.20370062412705    5.08162400984715   14.95976494980416
C        -1.93209016668943    5.10163508821882   15.49439794625719
C        -0.29964831911606    4.70025042516874   17.35052413017732
C         0.43754228333577    3.41357760728403   17.63433378734799
C         0.05818091324523    2.62714828720781   18.70682870528244
C        -1.27210216316991    2.50860363120269   19.18201242147846
C        -2.44102560373292    2.92189590789768   18.54275320568314
C        -2.64247428387491    3.72937433457506   17.36415671580014
C        -1.62711930222623    4.44601468885844   16.68518877880537
C        -2.43047172127321    0.86480842775730   16.37023789533646
C        -0.62837754760095    0.22961996909645   17.20708873186848
C        -2.33478233854840    2.13885614098625   13.42035322240815
C         2.06449852850018    0.83776494126988   15.41939038950882
C         1.18433072268701    3.78729619798060   13.34186304339147
H        -4.74414368361254    3.27245347387549   17.35575000717521
H        -5.22902961756102    4.43642022264154   15.25805475887171
H        -3.41756538465906    5.60276939196607   14.03884720838057
H        -1.15335389186157    5.66647901601729   15.00110240758048
H         1.48826362372538    3.41628194312735   17.36454007290997
H         0.80221864420172    2.01325580118828   19.20959261614897
H        -1.40738938360513    1.93338491349853   20.09369221863655
H        -3.36484537469868    2.62333234484349   19.03256332057904
H         0.30682385223370    5.33740078471508   16.70491360772392
H        -0.47588250902955    5.24408448905157   18.29197378309622
H        -2.75154416266535    1.35513195815947   12.78729383724342
H        -2.84528138591345    2.13548482496438   14.38670545853917
H        -2.47524006614143    3.11068096302371   12.94187724336847
H         2.63134543559110    0.00367594106368   15.00760729417796
H         2.70680574414451    1.71941761073089   15.48747856925289
H         1.69437980102594    0.57787860810762   16.41444105400334
H         2.13309181548005    4.30444877085583   13.49065722351978
H         1.35490640873426    2.84472551091395   12.81886615511931
H         0.51943407515578    4.41327493569788   12.74374953090986

