81
CSD_code = SAMWEJ | q = 0 | S = 0 | Stoichiometry = C42H30ClF5P2Pt | MND = 4
C         0.29902701757093    0.90150443983534   10.30262790463624
C        -0.95241943600049    1.50932375357411   10.22940192096594
H        -1.07193779444409    2.40036081004653    9.61942985219851
C        -2.01818117963300    0.98367605877308   10.93339415110692
H        -2.98837926343381    1.45496683133052   10.87857496150045
C        -1.83625397801168   -0.14470612287582   11.71848782746782
H        -2.66636905312684   -0.55323916863857   12.27584963186695
C        -0.58969761765251   -0.74291869339199   11.80056712053054
H        -0.44940384286291   -1.61562681725246   12.42159141803975
C         0.48233430928608   -0.22341487768209   11.09519683885389
H         1.45782478262576   -0.68259447097005   11.17089359627666
C         1.55110710349088    0.88582907325489    7.71316521907245
C         2.62340418206595    1.11009769874173    6.85143265508372
H         3.48915080027913    1.64939879565385    7.21478552275864
C         2.57699558871608    0.65238258474015    5.54964212192247
H         3.40966354764437    0.82924984242323    4.88502400930808
C         1.45562244711683   -0.02569998738729    5.09506506539446
H         1.41316833479718   -0.37283047574662    4.07371337119183
C         0.38935303304278   -0.25250873540874    5.94846332177846
H        -0.48460717829203   -0.77746429178687    5.59281485834631
C         0.43155823848524    0.20360928814739    7.25518066613444
H        -0.40753453738663    0.03987010585136    7.91640032036658
C         3.18443856805729    1.10392543451906   10.02764069892712
C         3.93434678951161    1.95953189289844   10.82623919489313
H         3.56872772011015    2.95928163477824   11.02098558942308
C         5.12773127321257    1.52370715571569   11.37374864936422
H         5.70898891199858    2.18784980278534   11.99588653406964
C         5.57586561541162    0.23728784938192   11.12343415656599
H         6.50693056947683   -0.10372687188838   11.55155840119590
C         4.83410420307021   -0.61495364439507   10.31961997384874
H         5.18792663182268   -1.61637208631458   10.12201799707653
C         3.64120445752404   -0.18597016037352    9.76822747131915
H         3.06560007609245   -0.84307643446496    9.12958968384900
C         1.30366845614623    3.98675263986926    7.26469316285710
C         2.40268015328232    4.47190963150469    6.56897886551633
C         2.46655928473463    4.51727425813378    5.18434357917480
C         1.39291114060881    4.04350441829594    4.43979149862979
C         0.27439984121005    3.54202551237954    5.09491279471834
C         0.25133858367314    3.53244208946210    6.48120353327838
C         2.09004822013037    6.91938161073773   10.49307089990285
C         1.86903764469113    8.00827734866347   11.32491858560062
H         0.89720243062290    8.48013561079257   11.35727867265466
C         2.89770400035194    8.47472715881286   12.12552078573104
H         2.72760557722033    9.31891884609382   12.77771262963839
C         4.13808614825637    7.85916394260753   12.09966109681617
H         4.93352786179513    8.22577410238788   12.73162361535954
C         4.35711673564371    6.76607357134826   11.27528389504386
H         5.32161571913976    6.28032327555828   11.26384264125621
C         3.33469114769174    6.29363982819951   10.47597236070677
H         3.48331755555742    5.43110965924269    9.83195139942293
C        -0.77325166853088    6.77834720935190   10.00508071203012
C        -1.59963694398975    5.90053684892315   10.69668083615441
H        -1.27015565454572    4.88356053875523   10.86500849325662
C        -2.82339269968664    6.33587636804020   11.17312725444535
H        -3.46507048076814    5.65427817376641   11.71171884434812
C        -3.22516276700215    7.64381252569755   10.95816019349928
H        -4.18014960059534    7.98411478426869   11.33070304779623
C        -2.40682106203775    8.51840298003217   10.25952345504506
H        -2.72453117652520    9.53667264724174   10.08843778109966
C        -1.18351223570780    8.09001613724480    9.77913929755577
H        -0.54700312545944    8.76494063092381    9.22178167827603
C         1.02189832805254    7.06665372840391    7.82489444967589
C         2.17491567685435    7.75863298283351    7.47838800816116
H         2.96450978405862    7.88775475096896    8.20488941833626
C         2.31275922452175    8.27079265986742    6.19933899464002
H         3.21277774951070    8.80311161907002    5.93014886491559
C         1.30902757988038    8.09022303457206    5.26304707138794
H         1.42704049162181    8.47955468775866    4.26306049294314
C         0.15442487923714    7.40244343682105    5.60623695263696
H        -0.62876400332645    7.26034094720649    4.87633561655055
C         0.01269567534913    6.88906076244930    6.88005591032490
H        -0.87969208394626    6.34183560939690    7.15695948468053
F         3.45987592586289    4.92003719053041    7.28216048836536
F         3.54856183377301    5.00720488536942    4.55920407912006
F         1.43579912156022    4.06998953533619    3.09948194783625
F        -0.76525595707932    3.07860801986930    4.38373818255816
F        -0.84749613577010    3.05778709246371    7.10978360464378
P         1.61428850117865    1.69320099117198    9.34105583882513
P         0.83441071123976    6.19274507113710    9.40838780281356
Cl        1.11851512194250    3.89450611400541   11.62936648450888
Pt        1.22229416901940    3.94337431859944    9.28749399191404

