139
CSD_code = SAMZEN | q = 0 | S = 0 | Stoichiometry = C104H32ClNW | MND = 8
C         8.48885570964215    2.33898404730067    5.22225596404596
C         9.90634475955395    2.33580926620112    5.61730346948901
C        10.56999947087152    3.53433878400964    5.88707421795524
H        10.04512468180699    4.47569330775502    5.79385688537861
C        11.89214812239380    3.52467189465819    6.28813157604802
H        12.39253825405260    4.45876480088199    6.49605332987883
C        12.57169034844008    2.32592876295095    6.42907003191820
H        13.60191038551689    2.32135284191641    6.75227685802112
C        11.92546449727261    1.13359090260766    6.14908101107585
H        12.45244496450854    0.19559630677679    6.24493460052214
C        10.60489923041709    1.13439552266837    5.74085038421712
H        10.11174037478975    0.20097602941253    5.50880217694442
C         7.87582770299682    3.16591282928575    4.21351400909230
C         8.55610477722376    4.10553545798283    3.30911193292678
C         9.81725511437417    3.80039615685584    2.79952667675840
H        10.30624631412792    2.88131308801793    3.08918882848176
C        10.44034909023734    4.66147472114399    1.91630665180358
H        11.41837487904644    4.41354581983792    1.53057649575331
C         9.81406769009005    5.83240347671800    1.52420305957015
H        10.30381069822455    6.50410622513162    0.83494191320528
C         8.55637047713142    6.13712987471004    2.01749079668136
H         8.06192373281483    7.04822490098559    1.71509917800692
C         7.92745525760927    5.28150897805474    2.90125235264677
H         6.95150486573324    5.53617278379907    3.29148604735650
C         6.52808150105147    2.76093141379947    4.07684427613508
C         5.40730059830841    3.43648500768444    3.39442716876587
C         4.59468447044419    4.20071138719507    4.27272680377464
C         3.50113182793227    4.87917587827004    3.71524259794983
H         2.89342128314086    5.50818342742210    4.34909698296188
C         3.22389957894014    4.77884112931197    2.36604334403245
H         2.38229252815894    5.31701997841786    1.95465250302337
C         4.01424413632319    4.00285378200261    1.53227632827109
H         3.79046119663152    3.93475424225184    0.47866936798482
C         5.10880361822823    3.32554990826988    2.05300794916408
H         5.74331659016651    2.73277307176128    1.40866253070791
C         6.27171553524392    1.69045446545302    4.98823406345572
C         4.97941784526336    1.00484019808938    5.15064031383542
C         4.43140989823079    0.88550731365757    6.42835198207176
H         4.97743727406339    1.30150055666025    7.27076455531555
C         3.20201363088679    0.28162527572610    6.60357166595342
H         2.77952641135238    0.20116600860645    7.59399601716463
C         2.50391302879687   -0.20521459398988    5.50877185346493
H         1.53927429047961   -0.67024918096328    5.64604449013515
C         3.04126730402875   -0.08684892873901    4.23875095813942
H         2.49759262428196   -0.46059647003139    3.38393665603736
C         4.27472836665642    0.51326001595268    4.05616395981093
H         4.69325008726580    0.60425090821001    3.06465270129904
C         7.49146126326060    1.41785286771323    5.69946180284975
C         7.68493387859765    0.29379117769051    6.63062438241840
C         7.17709572816369   -0.96962154773003    6.33351370013803
H         6.64769031586865   -1.13010474816634    5.40531409716863
C         7.35599974990273   -2.01646511327263    7.21959110561540
H         6.95908411820025   -2.99157228267033    6.97915201106018
C         8.04042157028054   -1.81971134382056    8.40723834697644
H         8.17542549644138   -2.63971227772991    9.09638112133502
C         8.55135454653047   -0.56711817964332    8.70792687600708
H         9.08454125384065   -0.40262404105667    9.63283683735949
C         8.37682788314082    0.48056114497050    7.82588176399202
H         8.76826620541481    1.46165155881014    8.06091469731906
C         4.98275803203538    4.26576023793847    5.65765783653978
C         4.02113591430462    4.73272859359532    6.64544061576520
C         2.71727172776136    4.22706897064015    6.69994350622278
H         2.40379478056161    3.49612738892854    5.96707239476485
C         1.85011087135092    4.62182296932016    7.70159526502311
H         0.85193190860960    4.20916926605039    7.73796780052936
C         2.25406389177443    5.54085174706542    8.65660558034622
H         1.57272101383944    5.84751752480189    9.43632849910723
C         3.53733271424417    6.06647259613384    8.60486348096803
H         3.85376051540243    6.78858741263288    9.34380218000133
C         4.41314103639734    5.66680089207074    7.61602122282962
H         5.41303466098195    6.08577701459152    7.56579074391262
C         6.18343019763245    3.43052953372308    9.36327584447413
C         4.89525090835753    2.80087469168184    9.86217380825331
H         4.06109947631679    3.19594849210937    9.28558217436606
H         4.74374077046870    3.02246596638024   10.91439666983559
H         4.93990768687107    1.72061904673690    9.73050817096747
C         7.43696415716150    3.23314975807389   10.21832083694085
C         6.73361972025481    4.63692778797292   10.11601538797329
C         7.51882630461899    5.70217270876870    9.46485215546596
C         8.72622771739322    5.46924110001518    8.83828404702401
C         9.37389912440757    4.16329061764222    8.92375774479922
C         8.79264815778113    3.14462718389735    9.65232490809971
C         9.59743267385184    2.33279456629121   10.51591377841497
C         8.83298069773269    2.03735741070243   11.69604729975664
C         7.54639397888976    2.65846722370284   11.56894981322341
C         6.96621486171611    3.23726846520407   12.67983274859348
C         6.31861231083723    4.54132401292945   12.58668910434045
C         6.27296881222227    5.22180824379303   11.38597960897962
C         6.55468292202408    6.62811526120195   11.36696277953291
C         7.31817742181576    6.92219123256817   10.18455936711928
C         8.29877681886414    7.90671755873345   10.21363970645303
C         9.54811697644094    7.67339677624784    9.54985336584646
C         9.75803252665962    6.46940646821991    8.88495944125121
C        11.03053351063241    5.80525789101641    8.99982947567764
C        10.79258454695537    4.38496080714477    9.02940927080544
C        11.58206088103477    3.57369823327088    9.83896589615560
C        10.97099542904180    2.52056108209882   10.59726829950264
C        11.63124853777811    2.43506726048064   11.87589823369123
C        10.89553543413215    2.15300215965987   13.01803023487285
C         9.47157488789631    1.94452077754295   12.92688775821786
C         8.85515028742069    2.52407597991888   14.08457161696874
C         7.62860829858966    3.16872502736153   13.95440018232099
C         7.39889322293034    4.40747141951354   14.65205091918375
C         6.59523612680918    5.25178597930160   13.80619773366765
C         6.82243004978603    6.62457336806257   13.79139355475884
C         6.80189464854188    7.32834672759760   12.54190803537418
C         7.82612733269585    8.34322321707570   12.57705908529914
C         8.56058410903422    8.62635047415766   11.43481216086658
C         9.98322408748255    8.83731335783785   11.52470454220065
C        10.59308045667339    8.24763024774876   10.35781316210619
C        11.81765458574875    7.60386498534761   10.46773522084739
C        12.04152827883088    6.36111579961530    9.77143151029686
C        12.85190487954654    5.51862229103590   10.61559430704590
C        12.62556831289387    4.14953177245524   10.64793856019741
C        12.65659187185713    3.44633715212988   11.90758192567666
C        12.90848595848274    4.13771315684551   13.08487220981786
C        12.14500496633395    3.84367882740411   14.27274977665071
C        11.15695938089237    2.86899728337611   14.24053325431305
C         9.89432815888526    3.09817448128885   14.89982861426599
C         9.66966290572725    4.29366525275261   15.56824811186028
C         8.39565041384048    4.95781174269105   15.44556312198845
C         8.63571313572243    6.37933113440903   15.41962619376925
C         7.86228907855037    7.19687957744047   14.60707556167392
C         8.48405930316021    8.26020301794829   13.85603390039044
C         9.85467566718819    8.46373853387916   13.94432876563141
C        10.61830442287013    8.75750934255684   12.75647442625180
C        11.89021801747942    8.08931847612312   12.86842341565143
C        12.47863938377541    7.52478296815216   11.74438137244012
C        13.11802176346711    6.23507329861801   11.83603206607119
C        13.14476074179943    5.55865508240124   13.04847345790873
C        12.52981822363015    6.14305455553026   14.21357705564125
C        11.91425181377898    7.38433648774402   14.12517727554808
C        10.65565016556437    7.61428625907900   14.78901280170761
C        10.05654551118442    6.59269861879820   15.51416030505242
C        10.69606088627421    5.30290066468167   15.60574076664704
C        11.91053353778371    5.08340619602038   14.96916924360889
N         6.39463858054336    3.45367644964705    8.01375935002779
Cl        7.79197599546473    5.62750053341451    6.09059705389435
W         6.75974388730241    3.52276453872742    6.27795806627339

