117
CSD_code = SANBEP | q = 0 | S = 0 | Stoichiometry = C52H60BNP2Pd | MND = 4
Pd        0.15931453880969   16.72558461776820   12.94532588038578
P        -1.99350393384021   17.67261119885551   13.21689856655963
P         0.90872228702927   18.60888008164130   11.87653846398433
N         0.63308231589999   14.69946015072551   13.51172197344757
B        -1.06428047321041   20.44150818626618   13.12570653620803
C        -2.08609153818244   19.31979416556779   12.44579363010496
H        -1.83891814477794   19.13932215900488   11.39185536041760
H        -3.13185460433087   19.64007497564071   12.47371134026682
C         0.52225810701017   20.20404408899994   12.63628739588938
H         1.18922735962056   20.28312791858841   13.50128432393305
H         0.86265130470719   20.96698393444161   11.92658453220116
C        -1.44241296551996   21.94416982044901   12.66444358027111
C        -2.26959221552189   22.24579552190795   11.58459031877381
H        -2.74015887573271   21.44399125935326   11.03036614131541
C        -2.51509695958670   23.54993086355079   11.18792882283376
H        -3.16531044095222   23.74495007379024   10.34418490582059
C        -1.93191730172812   24.60460119851698   11.86640661987812
H        -2.12234016587048   25.62479340820783   11.56137173537544
C        -1.09990439469247   24.33642017776186   12.94070611098589
H        -0.63582216979151   25.15269887183193   13.47920284758357
C        -0.86203375567084   23.02960410313147   13.32339974796281
H        -0.20919456661297   22.83643486648059   14.16424312073622
C        -1.17571496477980   20.22635131480171   14.72297561713420
C        -0.46061047096439   19.21551717250000   15.36695237657264
H         0.26966967013197   18.62681556285855   14.79891864326479
C        -0.61701602798931   18.96109495089355   16.71971155683551
H        -0.03753791950532   18.18529736280666   17.20202007184145
C        -1.51157830951945   19.70277088334152   17.46912419843169
H        -1.63969682384474   19.49956946632957   18.52373637784263
C        -2.23693428805359   20.70861829555503   16.85450545709230
H        -2.93836696315779   21.29610505979661   17.43228541066729
C        -2.06383946467389   20.96151249584059   15.50665109589122
H        -2.63293601667527   21.75459517663440   15.04103944820111
C        -3.10644915239296   17.67666538282254   14.66812719744769
C        -2.95769808852080   16.64682068136598   15.59142832121316
H        -2.19836457400758   15.89256637434854   15.42545848467036
C        -3.75561641852583   16.57958158931987   16.71696773364093
H        -3.62465248056478   15.77519113152971   17.42718209735610
C        -4.71747447774736   17.55057921557220   16.93713680071547
H        -5.33933698425789   17.50787647979003   17.81941703420210
C        -4.87238495111334   18.58086753692014   16.02586571469283
H        -5.61705820123922   19.34462958934030   16.19736585026393
C        -4.07304618407492   18.64702245241788   14.89903521216991
H        -4.19654066382754   19.46691185205062   14.20964419889449
C        -2.97917455929176   16.73984946157539   11.98535150061758
C        -4.35731421571569   16.57296018166356   12.03242192915094
H        -4.91593010622484   16.96025913777266   12.87331563410108
C        -5.00992039014469   15.90927862614217   11.00771217591250
H        -6.08192690644917   15.77982625707306   11.05001830358717
C        -4.29860920232956   15.41771868617923    9.92596643146229
H        -4.81486268732175   14.90744215047552    9.12595226923977
C        -2.92189474799496   15.57747027097263    9.87311258834255
H        -2.36485757629412   15.19500376499524    9.02866503271337
C        -2.26694584153683   16.22536994351443   10.90221596186777
H        -1.17832965998734   16.35396243277609   10.87606614206997
C         0.43321966320684   18.73096780868787   10.12199832876793
C        -0.14757707286796   19.86202483453379    9.56037027966165
H        -0.33569815673273   20.73563558679329   10.16535828514181
C        -0.50628693977283   19.86267450827028    8.22301552601697
H        -0.95989669329994   20.74433394779745    7.79421722884060
C        -0.29091381506739   18.74351725053575    7.43646526754416
H        -0.57453681073097   18.75054849550835    6.39415776413854
C         0.28523609201540   17.61152374589354    7.99093160281596
H         0.45373360135330   16.73520398887701    7.38075540770386
C         0.63945020475887   17.60652906729572    9.32620749037719
H         1.09021533990157   16.72869030337440    9.77298514249840
C         2.73065394590319   18.62416399713327   11.80109912315627
C         3.47946489784250   18.91609966776079   10.66886623300607
H         2.98200100211796   19.13787462433098    9.73500175970543
C         4.86265211285035   18.91999551135183   10.73873831844175
H         5.44274920680386   19.14370404994386    9.85496144359264
C         5.50459499953436   18.64246517299778   11.93353028672694
H         6.58364503508075   18.64641833952006   11.98098757020691
C         4.76144909377818   18.36265312156931   13.07111515575322
H         5.26304529524331   18.15390743244154   14.00556847954172
C         3.38328395301783   18.35180303083304   13.00150706369845
H         2.78010105007835   18.13676463315230   13.88073086543151
C         1.64080895339274   15.38983102305328   12.80703419807770
H         2.49519343511457   15.63010234435470   13.44863624641834
C         2.15574339307248   14.87851538158681   11.47619983095170
H         2.71043778133195   13.94636615763967   11.61898254633396
H         2.85092694191128   15.61353226188142   11.06969259430445
H         1.37395692948223   14.69484668130291   10.73951028757308
C         0.88542191224714   14.43095338076590   14.93367377136073
H         0.04346239430626   13.83669490968900   15.30431641564645
C         0.92274378620610   15.73194655032196   15.74437137187757
H         0.01531427422306   16.32157141256264   15.53564811727839
H         1.79984737188147   16.32775859822397   15.46346949160121
C         1.00709295531745   15.40822876599198   17.23371373263975
H         0.11516737790173   14.85492405190305   17.53862952936743
H         1.03783803759348   16.33130997265151   17.81416756413703
C         2.25168299990716   14.57627461787986   17.53051006883052
H         3.14345302207015   15.16450208538922   17.30173497770860
H         2.28422612420341   14.32162082502393   18.59120224298807
C         2.25906131816219   13.30206534659601   16.69183321240914
H         1.40982881751456   12.67485565755727   16.97465112939938
H         3.17052446801177   12.73321536428917   16.88542105651958
C         2.17236435515128   13.63670938823194   15.20404556573985
H         2.19074340203640   12.71745902916008   14.61777857603575
H         3.04740918842271   14.22668939409774   14.92429088082837
C        -0.23986997443361   13.75709014114756   12.79939959631613
H        -0.31181644074319   14.11986525454649   11.76477857852086
C         0.27233180558444   12.31187718792885   12.76369181542784
H         1.30086481032724   12.27791334791057   12.40009497280098
H         0.24755155448183   11.88226827501006   13.76739349420890
C        -0.62265436240361   11.47783936223154   11.84851216198468
H        -0.25370442229085   10.45086112813330   11.81350919388108
H        -0.58240612451747   11.88135742635369   10.83400585492188
C        -2.06506486543096   11.49700798004433   12.34495620858179
H        -2.69849717436664   10.92396623819415   11.66599010745121
H        -2.11560031967415   11.02242303735220   13.32792687507941
C        -2.57575847219652   12.93144346576018   12.44533363431500
H        -3.59228139357276   12.94166946897152   12.84228909708958
H        -2.60743479021097   13.38207460342735   11.45122164989764
C        -1.66972087149281   13.75989108173202   13.35061566780610
H        -1.70187363693711   13.33539188949972   14.35679301000395
H        -2.03847432509901   14.79050521051827   13.39620722784770

