68
CSD_code = SANBOY | q = 0 | S = 0 | Stoichiometry = C32H29AuN5P | MND = 2
Au        4.14336667024256   -0.25116937724040   -0.64018117563899
P         3.71083671300199    1.95748133652422   -0.58956660679069
N         5.36791397730337   -1.95852594612370   -2.63550608823050
N         4.95883692045963   -2.86713660392597   -1.82447370120139
N         4.36867700736864   -2.30031574364767   -0.80470212226802
N         3.82592559418195   -3.03057954866775    0.13367316143387
N         3.25608382332967   -2.24893693779428    0.97915638555271
C         5.98501231333506   -2.36267544836139   -3.79362490122926
C         6.13972419295932   -3.69964828444549   -4.18604444497896
C         6.75138861010419   -4.00316471435244   -5.38085149622103
C         7.22850926273409   -3.00017297075884   -6.22269937897185
C         7.07694061080925   -1.67530866342006   -5.82992582889499
C         6.46542833387437   -1.35479808111246   -4.63621094044373
C         7.87593773396234   -3.35444746628633   -7.52668081485954
C         2.61650288083182   -2.79644529731646    2.06151511600318
C         1.96184616175257   -1.90550441587089    2.91916839553547
C         1.29909600682325   -2.37228878943030    4.03439251726134
C         1.26893505947362   -3.73013942037625    4.33260020365071
C         1.92084018609825   -4.61516904192752    3.47611694214159
C         2.58503741578930   -4.16600494542277    2.35726905176898
C         0.54251187165982   -4.24281788966557    5.53874158204866
C         2.24027448495595    2.35652577721339    0.39548726210888
C         1.31121886579163    1.33768645661660    0.58543014251573
C         0.17134930744255    1.56912813104895    1.33302336264774
C        -0.04591423815295    2.81779190457275    1.89264643138198
C         0.88002730346021    3.83305891371005    1.70997713469318
C         2.02409932297179    3.60764989910704    0.96673028243269
C         4.95900273552404    3.09557475703621    0.06506345150777
C         5.69572092382583    3.96065876361122   -0.73656146011477
C         6.68872138075473    4.74021183648359   -0.16976716042994
C         6.95813054452313    4.65258350524564    1.18608100309650
C         6.23940152873633    3.77397236573646    1.98345486076521
C         5.24892174758716    2.99082818805744    1.42560381023065
C         3.35146808692233    2.60525745099123   -2.24668472317353
C         3.84554793459874    1.88409802301891   -3.32972848791006
C         3.62955521144715    2.33821749935282   -4.61811385578007
C         2.91447255456397    3.50617845157886   -4.82793694959296
C         2.41230908069577    4.21947225515627   -3.75023350059542
C         2.62776075930434    3.77437727021420   -2.45887125984184
H         8.63004782556755   -4.12677135344468   -7.38326795939029
H         5.76767392322986   -4.47487276239878   -3.53365214272294
H         6.86577418304035   -5.03723075418790   -5.67659965092811
H         7.44504625843191   -0.88550278111916   -6.47074399331083
H         6.35402353063254   -0.32502038501266   -4.32999925809524
H         1.50386689415217    0.36066460920590    0.15964547684315
H        -0.54177123367939    0.77277693805146    1.48598467047438
H        -0.93394529977657    2.99936905755717    2.47962352041177
H         0.71210693139434    4.80377739429956    2.15336003669150
H         2.75626254180793    4.39445866084008    0.84217860135257
H         1.98821332862797   -0.85027423202687    2.68844377336257
H         0.79753201255635   -1.67264840981567    4.68931459894208
H         1.90369493436805   -5.67319088287537    3.69978628517755
H         3.09289456608664   -4.84939013729917    1.69388408382686
H         5.48755094740364    4.02582100388859   -1.79569122997460
H         7.25600504856332    5.41824595488458   -0.79046039035868
H         7.73347776182002    5.26448718721736    1.62236918949355
H         6.45696147389987    3.69837489046619    3.03862187318439
H         4.68608737538149    2.29350461096320    2.03367767195856
H         4.38758077227496    0.96340354902104   -3.14954303532015
H         4.01403263430757    1.77725722718400   -5.45697650671922
H         2.74207342734126    3.86011373961472   -5.83355758219190
H         1.84970146670633    5.12626047160969   -3.91793031956264
H         2.23272195555413    4.32675263930840   -1.61763395774620
H         8.34630553955241   -2.48430690249289   -7.97831815740796
H         7.13183960475644   -3.74317393236550   -8.22274530598719
H         1.14774948190853   -4.97632584729906    6.06873813142874
H         0.29648566907313   -3.43175143955754    6.22001352943322
H        -0.38521243571624   -4.73201131379760    5.23941184774807

