55
CSD_code = SANCAL | q = 0 | S = 0 | Stoichiometry = C20H28O6Pd | MND = 5
Pd       15.98101349431004    2.64516126503330    7.99125412137654
O         9.31336993213365    2.85656045331451    8.77838661151306
O        10.12529188918520    4.36311430196782    7.32956403903112
O        13.95881577512842    4.15800971931610    7.87545973624983
O        12.17151462318610    3.97515080152251    9.21350168912229
O        17.45663474918263    4.23649895339975    7.80259643581995
O        15.62343733518903    3.30776622303950    9.99526927363120
C        14.54588512145317    1.23855984213747    8.16862936035900
C        13.50214603042257    1.41469314862712    7.04696991709287
C        14.00313975752554    2.04283819808806    5.72061630841884
C        15.32540073372559    1.46332238525635    5.21765892651870
C        16.48839123176406    1.89793530119795    6.07704891325170
C        17.04056053114033    1.09196738955336    7.06635010015105
C        16.46385684645089   -0.27325510601352    7.39080744860426
C        15.20625144794378   -0.14445873656161    8.27002941836689
C        12.41856895452560    2.34360089925833    7.54586466306935
C        11.09725836611836    2.17325999545622    7.41766648953274
C        10.15956662977364    3.26896578031157    7.83026765232035
C         8.38222647042721    3.82356773855322    9.24245838795379
C        10.39998163644685    0.99433176442824    6.81633756230374
C        12.94263161870342    3.57839418518371    8.19871108099441
C        12.56141968780733    5.17311725310068    9.87393671451404
C        17.64775229715550    5.12339058452999    8.66655829994176
C        17.08545417235759    5.19931806401355    9.95005241222441
C        16.16824434565222    4.31678155770636   10.52053116035690
C        18.61548926916972    6.23798140620313    8.30211617142680
C        15.76771918268039    4.61181660001589   11.96040117044896
H        14.02277650178428    1.41176022595458    9.12301676490363
H        13.07497032004973    0.43298874310420    6.81192940463743
H        13.22426615775912    1.89686710414344    4.96750324762659
H        14.14179819319635    3.12002835146083    5.85710428061764
H        15.25299105981388    0.37410389463910    5.18094021331850
H        15.48593512290968    1.82312809926325    4.19855580387724
H        17.11636617502482    2.67624313007745    5.64145328787324
H        18.08625381522300    1.24705089023173    7.34468321129334
H        17.21304157959256   -0.87479275161074    7.90824035473950
H        16.22540151824771   -0.79126635763525    6.45743677778600
H        14.48890258837975   -0.93927561501193    8.03451005299960
H        15.50774430909829   -0.27607098304645    9.31266217291598
H         7.72479481250167    3.30653304286210    9.93664263763790
H         7.81438064090625    4.23599242029005    8.40577985170088
H         8.90728040771778    4.63731422659852    9.74609449907114
H         9.60181880973845    0.67408536172997    7.48388865409808
H        11.07841081277762    0.16508327203885    6.64575255619662
H         9.94749625254005    1.27877417498235    5.86612392528396
H        12.09435217810030    5.15110759051805   10.85579518261887
H        12.21268459665362    6.03584960453671    9.30256866379797
H        13.64842003509509    5.21110986804913    9.96051864701170
H        17.40490665552725    6.02702556051483   10.56677577524095
H        19.00980291072695    6.06721924625115    7.30350733886385
H        19.43645199938778    6.27067161609771    9.01492800602493
H        18.10167850154350    7.19641816725239    8.32681743336988
H        14.98483466390645    3.92359873312035   12.26969601527557
H        15.41464225842147    5.63599234780197   12.05820457955894
H        16.62977499384938    4.48437006711338   12.61202659706164

