49
CSD_code = SANCUF | q = 0 | S = 0 | Stoichiometry = C14H26Cl2N2O4Pd | MND = 4
Pd       -0.00008950180145   -0.00000009424696    0.00005400869879
O        -1.14129239884056   -3.73745483834555    1.52526425433842
O         0.26318706387185   -3.67336362327270    3.27774183352045
C         2.09618376208458   -2.14661664849160    1.63733482836560
C         0.84948054397281   -2.52120551795658    1.28053578520083
C        -0.10070295308763   -3.37325328579282    2.03702022064693
C         2.83294570414128   -1.17200772636096    0.77269318652551
C         2.77200551192690   -2.59272441745294    2.88984822662988
C        -0.53906130761000   -5.92899844103142    3.75698111996708
C        -0.66319218025930   -4.44073095655706    4.05040154274929
N         0.24672493695550   -2.05555343573419    0.07176015430859
Cl        0.70597519939681   -0.13255703599402   -2.18287373729989
H         3.80397850366026   -0.92789807863901    1.19334525102100
H         2.23965235450530   -0.23097572346586    0.68466734764741
H         2.97748070730921   -1.55574767215424   -0.24024222400136
H         3.84877033605353   -2.46776170812047    2.80702961047607
H         2.54626368280883   -3.62934851207919    3.12039738232783
H         2.41826524374071   -1.99006851504587    3.72634859652061
H        -1.21045447173773   -6.48350436381648    4.40599413725928
H         0.48056511916456   -6.26550877281773    3.93035721680159
H        -0.80734981444351   -6.12767247291921    2.72229701827272
H        -1.67794664451964   -4.09436871665548    3.83108384961951
H        -0.40992625248356   -4.21964912479043    5.08898468175425
H         0.81687214541907   -2.22044623255719   -0.76712150725344
H        -0.65981064175050   -2.53926667176137   -0.02010010379750
N        -0.24676611430691    2.05555174807366   -0.07178513184372
Cl       -0.70605272676194    0.13236831665931    2.18303504379942
C        -0.84953692357872    2.52121956600016   -1.28055193035125
H        -0.81683606191403    2.22060888068574    0.76711020982490
H         0.65982975487314    2.53917593437329    0.01998685554524
C        -2.09622854225354    2.14661606698265   -1.63736095737759
C         0.10065985122679    3.37326470023131   -2.03702318030747
C        -2.83299169175669    1.17196570468222   -0.77276339505146
C        -2.77206028563722    2.59280423733134   -2.88984114176612
O         1.14126766860142    3.73741159958060   -1.52526120911205
O        -0.26322290357149    3.67341732325019   -3.27772983817820
H        -3.80400821043284    0.92784669475029   -1.19345082027890
H        -2.23968209677363    0.23094579286021   -0.68474158779034
H        -2.97755900703810    1.55568077649357    0.24017635259099
H        -3.84882572002506    2.46786786416417   -2.80700824515745
H        -2.54628986077548    3.62943777514062   -3.12032294730311
H        -2.41835295457198    1.99019375165756   -3.72638769799309
C         0.66321116017418    4.44071853829846   -4.05039030426800
C         0.53922777320271    5.92899045719434   -3.75693442077325
H         1.67793471799953    4.09425154625769   -3.83109430852286
H         0.40989598586402    4.21967531568692   -5.08896916356017
H         1.21067734856506    6.48343173867572   -4.40594349855362
H        -0.48036169833913    6.26561754047612   -3.93030195985542
H         0.80754588875311    6.12762071655115   -2.72224940401757

