35
CSD_code = SANDAM | q = 0 | S = 0 | Stoichiometry = C8H16Cl4N2O4Pd | MND = 4
Pd       -0.12735032439203    5.76350176588133    9.97146041325286
Cl        1.68324764649112    5.83573433188241   11.41509634535353
Cl       -1.93769417488369    6.08261212659448    8.56141439079665
Cl       -0.59243149738734    3.15646607428495   11.27590444097629
Cl        0.33481166001460    3.41494712744478    8.24332094637739
N        -1.44475564181387    5.86550467062211   11.59695604707000
C        -2.56806245568232    4.93340889374905   11.66577815790130
C        -2.25329086012254    3.65058308913600   10.88569287610548
C        -2.85921855327623    4.60798503929992   13.13813898718456
O        -2.22790604407200    5.07671272071656   14.04675672250566
O        -3.87318071374340    3.76417724297070   13.26539760625706
C        -4.20608573044055    3.37295837860637   14.59556710961281
N         1.18980910446849    6.13853082365569    8.38651249625485
C         2.31208974518978    5.23061250374480    8.15948372067705
C         1.99639688448495    3.83413019936768    8.71034462282123
C         2.60244102707981    5.16063221248122    6.65303958522704
O         1.97112703121191    5.77784743132510    5.83796083369815
O         3.61557785680618    4.35003598599666    6.38327269231960
C         3.94844666500696    4.19184912633589    5.00577175468581
H        -1.77158826228269    6.83558273122459   11.59668352153332
H        -0.85732130199652    5.74240000832334   12.43544960194093
H        -3.46267798085603    5.37981945248368   11.21562304882255
H        -2.93480698583602    2.84528625995515   11.15231904551425
H        -2.28053857526294    3.85667656051050    9.81122053782979
H        -4.98782556202397    2.62439464143013   14.50295681436305
H        -4.56352218803013    4.23381661284274   15.16297863407549
H        -3.32935809766721    2.95809550879432   15.09530003062139
H         1.51769976030110    7.09411255512958    8.55155418371710
H         0.60189449295539    6.16047573256954    7.53962639720675
H         3.20739277943432    5.59315147984847    8.67839559308164
H         2.67687559904324    3.08521851592062    8.31018362802385
H         2.02462522280727    3.85458088777453    9.80419405205898
H         4.72460178154386    3.43274495573606    4.96836528365256
H         4.31345406890897    5.13508138214800    4.59601393250201
H         3.06982362401499    3.87623297120168    4.44106594596875

