28
CSD_code = SANFAO | q = 0 | S = 0 | Stoichiometry = C12H10Cl2NOSV | MND = 4
V        10.65011096778212    3.00629166089105    6.33169308181287
O        11.13008743462331    3.03094556172663    7.77722408156449
Cl        9.78013142435273    4.80633181790909    5.86865670752493
Cl       12.14583426976162    2.58118946038268    5.00765551472882
N         9.45731946230249    1.82237718611518    6.21003531560379
S         8.56629610172786    0.82599640443918    7.03373385339100
C         6.88324543069831    1.50003208159271    6.82202042112635
C         5.84110946201960    0.89201395281349    7.50163769178247
C         4.56108249756678    1.40000569340533    7.36117852784550
C         4.33575975699269    2.49866851752018    6.54607974886943
C         5.38700362228420    3.09220024764979    5.86667360202691
C         6.67152615372343    2.59011530726315    5.99914978497219
C         8.76562647703098    1.37908157823825    8.75477885747229
C         8.61276987729462    2.72207926486242    9.06013225553859
C         8.85106581740031    3.14051842436955   10.35798528461297
C         9.23400471911760    2.22581486520257   11.32696108215898
C         9.37963190162552    0.88615708530759   11.00754408529136
C         9.14940889940566    0.45543869439493    9.71112336378801
H         6.03257297140443    0.03951791150350    8.13522183873762
H         3.74006583491258    0.93772533477930    7.88737628341371
H         3.33616014928181    2.89189607981362    6.43967527813463
H         5.21161555987197    3.94724908346073    5.23214914191590
H         7.50673031657387    3.03934396807352    5.47563418126395
H         8.32162140840327    3.43101897216683    8.29317825845274
H         8.74573334209365    4.18492996581951   10.60865646549446
H         9.42776662479205    2.56115077458311   12.33464436490490
H         9.68434614987685    0.17702298020047   11.76231241223550
H         9.27387336707931   -0.58291287448359    9.44238851533554

