46
CSD_code = SANFIW | q = 0 | S = 0 | Stoichiometry = C19H24O2Pd | MND = 5
Pd       29.00674461747475    3.05706182060175    4.29659688051212
O        27.29548859195105    2.22854961516146    5.42305821875505
O        28.82263058898191    4.76918121821146    5.43150110826888
C        30.53731496525111    3.89284225079384    3.24828019796368
C        31.87476840936917    3.20363014954620    3.57724346187498
C        31.72579861936369    1.93752829084753    4.45539916045945
C        30.95976551617911    0.79759853010812    3.76794566785954
C        29.48367381630886    1.09203018701015    3.65073059756762
C        28.91033020128457    1.78591511456080    2.60617058690784
C        29.70783157922544    2.34986383545000    1.45063614712321
C        30.11208148882647    3.79219901732766    1.78192290673094
C        32.77992340912510    4.15368434442121    4.32529980517860
C        34.06934304985890    4.41849230098749    3.88775137987314
C        34.89297937297794    5.27693280341764    4.59707733213940
C        34.43508350391967    5.87779287545162    5.75566691634188
C        33.14770238309627    5.62026422297820    6.19963821390446
C        32.32671938023952    4.76415336393463    5.49056044185550
C        26.65787637817364    2.85978339916350    6.29830844309802
C        26.92021830289296    4.16263493369362    6.74936139123665
C        27.94156655817820    5.00170816331871    6.30910493999650
C        25.48315950575292    2.14988492121594    6.94741865251638
C        28.02155557240007    6.36891807561696    6.96607491584163
H        30.60492404525182    4.95785583766427    3.51380785525287
H        32.37191679557557    2.90414737509310    2.64634173352176
H        32.72795607056899    1.58564098052408    4.71664281171686
H        31.20490085805293    2.20323072711846    5.39359868759955
H        31.39594745019671    0.61663794106690    2.78174583494681
H        31.09317473103210   -0.11049092352158    4.35980488932604
H        28.83647986182523    0.46968233664026    4.27104621239998
H        27.83436035711620    1.68084629597754    2.43753148480494
H        29.11422303100494    2.32141898436879    0.53486516947981
H        30.60335183092419    1.74654599707101    1.28724165240698
H        29.24452555136037    4.44742126219097    1.63395026388897
H        30.90790980826501    4.13662790082444    1.11132095415659
H        34.43465704231791    3.95220239221428    2.98306940156816
H        35.89432294878756    5.47626144896502    4.24316199434833
H        35.07706509467452    6.54660451591131    6.31029432595600
H        32.78537341917246    6.08998624679936    7.10271631814574
H        31.31505107291122    4.57383465038962    5.82924425401486
H        26.26700551004384    4.55307562692220    7.51553104167774
H        25.37938920879218    1.15251575090412    6.52729325519781
H        24.56783743250042    2.71155962762161    6.77405258263303
H        25.63970886235257    2.07532742917420    8.02129735327974
H        28.86287030129443    6.92112123499494    6.55473156148980
H        28.14900836676117    6.26137202207768    8.04091118022471
H        27.10348453838625    6.92312490519277    6.78395181595864

