14
CSD_code = SANLEY | q = 0 | S = 0 | Stoichiometry = C11ClHgN | MND = 3
Hg        8.67565385208156    5.39518899497889   -0.18827426846801
Cl        8.40614014855427    4.40186316689104   -2.22617470124407
N         6.43338303053504    6.19395042203833    0.95243269610743
C         9.18881750092917    6.31015445984618    1.72118436240803
C        10.49027463199013    6.37405476440387    2.10340321073923
C        10.65550216528459    6.95313204755075    3.27744453718251
C         9.79195691886445    7.45545152457264    4.09702559112937
C         8.51909360392546    7.40928003450016    3.75479818849233
C         8.13540045234624    6.84334374212486    2.56439854970256
C         6.74601725715209    6.77328868132566    2.15507562876217
C         5.70123761843392    7.25650238252766    2.90197343222556
C         4.45779544197830    7.15560396225995    2.45961524626271
C         4.29662150555869    6.58715133292893    1.31004401852083
C         5.23550587236615    6.08663448405104    0.50765350817953

