95
CSD_code = SANNON | q = 0 | S = 0 | Stoichiometry = C49H22CoF15N6O2 | MND = 6
C        25.92827783957443   12.98312498775724    5.48940996811812
H        25.97900994091473   14.05237199402983    5.56315034437212
C        25.44478740517889   12.24294373206540    4.43794796990346
H        25.04270116029156   12.62259398979010    3.51821833648963
C        25.57283904856567   10.86775969290533    4.78946872402538
C        25.27258514305169    9.69080094254988    4.08532063742118
C        24.70134056198481    9.81122946126496    2.73598350893705
C        23.49043857730639   10.46854799610963    2.51568158058202
C        22.95360096612324   10.61268295563240    1.24231759871667
C        23.63039693907683   10.09173667941077    0.14357845204226
C        24.84158310507322    9.43304991528740    0.33469047226151
C        25.36165433842670    9.30274603550281    1.61627752485779
C        25.51556002984276    8.41723847766271    4.61665252045427
C        25.17819733029580    7.17470604330988    3.99158482763833
H        24.70124051743177    7.06647353849104    3.03664832543678
C        25.55780483143831    6.17986149844702    4.83478020971449
H        25.44791156624735    5.12286522680253    4.68666727887446
C        26.13236206261931    6.80615147585295    5.98530281299691
C        26.65538651161339    6.15324832097017    7.11387857896439
C        26.65577742356295    4.67745121415210    7.11343991872545
C        27.44175464621075    3.95277211643401    6.21877887513147
C        27.44933170110634    2.56352958015293    6.20775242515367
C        26.65685597406741    1.86318776064549    7.11302455360086
C        29.10214320358797   10.51389289997511    5.93046156032925
H        28.66053650617276   11.45595638975485    6.21485840439138
C        30.30583420756492   10.53630466825804    5.25554077126195
H        30.75722969658857   11.48949086021237    5.03514246368762
C        30.22296503172407    8.16238636278062    5.23733073243505
H        30.63880483690041    7.20385419682469    4.97577922077783
C        29.02824490844570    8.24393491562868    5.91014898471586
H        28.52344810403941    7.33058299806029    6.17490691429704
C        32.75375564543335   10.35861908939050    3.81088672888455
H        32.15071404142034   10.97441501058398    3.13813731764415
H        33.63417612519677    9.99998395512560    3.28138269186834
H        33.06542178336504   10.95227432627943    4.67456554128429
C        30.90156532747348    9.33263184510855    4.87673573212441
C        26.35884020152057   12.06203636385007    6.47206650518034
Co       26.65542763580613    9.41907768654806    7.11476614219856
F        22.80403405247737   10.95219722387471    3.55814650382716
F        21.78760333082189   11.24274484265497    1.06844971615849
F        23.12354600896768   10.22509240476460   -1.08418915564550
F        25.50420439275733    8.94087754022675   -0.71641710496281
F        26.54698700572984    8.70029368113497    1.76790971315216
F        28.23342759989248    4.61231555262724    5.36359982101459
F        28.21888451643076    1.89771966996446    5.34259969431056
F        26.65739274813371    0.52888202201518    7.11283940900331
N        26.07356567019976    8.15561084745560    5.83679359243386
N        26.13327008812136   10.80297814835455    6.01597139832487
N        28.44596134340020    9.39959819378358    6.25553185282611
O        32.05214991207355    9.19875703034441    4.21059769565729
C        27.38523964980369   12.98220733292807    8.74090952890065
H        27.33534485945758   14.05150450325271    8.66738202556325
C        27.86825401241141   12.24145833221109    9.79216144624509
H        28.27073524784436   12.62061197176606   10.71192482192367
C        27.73910542206443   10.86643275269183    9.44034971801850
C        28.03881196447914    9.68914839190077   10.14413577256794
C        28.61015302477174    9.80882767936615   11.49353072533155
C        29.82146732364938   10.46531885268945   11.71400539098748
C        30.35832553981179   10.60889685524914   12.98743017803740
C        29.68109522176552   10.08825577154322   14.08604474398619
C        28.46953749085994    9.43030596777133   13.89474711694625
C        27.94949843256211    9.30046795218830   12.61309068926312
C        27.79541729985526    8.41590456506920    9.61225605602045
C        28.13288670207641    7.17305026788571   10.23660982457305
H        28.60998532615588    7.06430469469073   11.19142034149003
C        27.75320411953223    6.17866645567865    9.39289909125676
H        27.86323127714141    5.12159673215860    9.54037628747893
C        27.17840418350364    6.80559323265048    8.24282583530122
C        25.87033005571380    3.95189162050320    8.00784988844857
C        25.86380598355943    2.56264353008211    8.01848085881191
C        26.95384893428756   12.06162913901890    7.75810168503386
F        30.50821169786753   10.94870436950766   10.67166718217443
F        31.52472250441627   11.23816047532317   13.16148043558092
F        30.18790382368193   10.22117907534430   15.31387350091791
F        27.80656372248786    8.93838220084947   14.94574619854668
F        26.76393762376863    8.69854976072310   12.46124406267969
F        25.07820057834972    4.61062432528007    8.86322641391814
F        25.09475996300104    1.89598808218879    8.88343068842090
N        27.23714759651290    8.15497222130562    8.39208791063287
N        27.17843364794092   10.80232970911803    8.21390330857623
C        24.20556875893201   10.51438607986025    8.29090869151697
H        24.64923897190123   11.45632683233489    8.00938516867474
C        22.99662518953260   10.53716675686040    8.95633897933297
H        22.54327333253632   11.49047088742071    9.17211856042745
C        23.08061759517095    8.16334325019108    8.97881242478091
H        22.66343455633934    7.20500050501839    9.23889593569081
C        24.28054664035870    8.24449081928968    8.31524698344017
H        24.78831577108423    7.33100249916290    8.05670559964327
C        20.53585749293501   10.36045031488813   10.37890323764154
H        21.13256725737658   10.97707046906100   11.05653442508358
H        19.65063594196008   10.00223583396926   10.90063494289918
H        20.23206784492493   10.95311745782914    9.51174120934797
C        22.39806759583157    9.33373719794176    9.33140808854511
N        24.86438099719248    9.39993201053218    7.97174432085404
O        21.24140728031660    9.20027990388503    9.98703141284914

