33
CSD_code = SANRUV | q = 0 | S = 0 | Stoichiometry = C12H14I2N2O2Zn | MND = 4
Zn        3.06569965269163    0.26423366519330    8.96007283185224
N         4.12400528929108    2.21608783328155    7.00629985782662
C         2.94507070656832    2.77460802995969    6.69234398252019
H         2.22538108738640    2.84104442787408    7.49495601915559
C         2.67744298294787    3.19274042752051    5.41005106429491
H         1.71021995739580    3.61707262353538    5.19336336581984
C         3.62636122977166    3.04187309574153    4.40419386913474
C         3.36164253547373    3.47718154972949    3.00314959822897
H         3.78121870489495    4.46999198716655    2.83717305528922
H         2.29396457199573    3.52103338074745    2.80749033032202
H         3.82627543123075    2.79512154966220    2.29556281323759
C         4.84420542584651    2.47017027297560    4.76823657417804
H         5.62003277768175    2.32117989566171    4.03396397708952
C         5.06748140171266    2.06911177309316    6.06237780557407
H         5.98280684311438    1.59768680750985    6.38701212586523
O         4.34443878722471    1.78840119633221    8.20375468891212
I         1.92891758831989   -0.53866085145447    6.85334948182559
N         2.00725099476525    2.21621756227779   10.91340435181256
C         3.18619560532768    2.77471765451884   11.22735598934574
H         3.90590479787753    2.84110291358859   10.42475453980604
C         3.45386318394007    3.19280790228289   12.50965346107189
H         4.42107890467221    3.61716446764443   12.72632258271823
C         2.50498542460153    3.04187074989765   13.51553249167597
C         2.76974210945422    3.47715828413512   14.91657977111027
H         2.35034499050685    4.47004577583188   15.08255763451977
H         3.83742447513501    3.52082383401123   15.11225758098177
H         2.30498332374264    2.79517790569367   15.62415835649981
C         1.28715873259517    2.47012057779583   13.15151408999820
H         0.51135203607484    2.32110660347843   13.88580505877005
C         1.06384071308612    2.06911714096271   11.85736358772943
H         0.14856043961055    1.59758149259475   11.53276805235810
O         1.78682283700316    1.78849788028398    9.71597556566631
I         4.20252645806356   -0.53898840953278   11.06654544480564

