71
CSD_code = SANSIK | q = 0 | S = 0 | Stoichiometry = C26H24F2N8NiO10 | MND = 6
Ni        5.16341437237461    4.00292739417224    5.96331948539591
F         2.96035732949378    4.95537534631992    9.95923269719099
O         3.52226828027388    3.06943055405365    6.34033187289500
O         2.20811718099579    2.50836305100896    4.60717191095180
O         2.63406223590941   -0.19088732830374    8.54080764880677
O         4.17402322307679    2.88201394977809   11.49038265088260
O         3.97049390857121    5.93964121496893    6.95491357576039
N         2.06669541861552    1.98338821143276    8.15201014322230
N         3.28589307125179    1.37778749658932   10.03760239772574
N         5.73044970805365    3.58511696718306    7.74494048665110
N         6.53924049165969    3.87552100194185    9.77858035618877
C         2.54668839882135    2.50809071503028    5.77534854329257
C         1.62940482427310    1.73003625405083    6.80144735762199
H         0.59593217073036    2.04989504395874    6.65483555288226
H         1.70775446624336    0.66008611124660    6.60454396908805
C         2.66944925028630    0.96679989702838    8.87377634510674
C         3.51005991404966    2.66849492962287   10.50165599572202
C         2.85593702155922    3.64009460540746    9.64905748325455
C         2.18190922342672    3.27679469581705    8.53885182311626
H         1.68827161019633    4.00979337451770    7.91805644414573
C         6.08110954522460    4.46013819759120    8.65809120192492
H         6.01465918128948    5.52474562443319    8.54078603298339
C         5.95661890928507    2.34100953588791    8.29274129684782
C         6.47997519643417    2.51881232722129    9.59155641631441
C         6.79204862089169    1.44109361843156   10.40704864201953
H         7.18285977186297    1.58761259251144   11.40099486795798
C         6.55577183691918    0.18099905964904    9.89573677742526
H         6.77847295299055   -0.68507420515368   10.50054161264902
C         6.02907424430221   -0.00467162811378    8.61374825329115
H         5.84707511302956   -1.00860314897929    8.26356100984075
C         5.72312625767240    1.06144215803613    7.79504868801413
H         5.30681529799720    0.92635234526561    6.80976677285770
H         3.65943695623860    5.68919027536008    7.82999689102725
H         6.84443801332509    4.34784565588664   10.61327628934693
H         3.20418300177403    5.98011109686927    6.37537961176448
H         3.73445962263446    0.63569331768898   10.56488440892424
F         7.36622779255895    3.05212677029708    1.96718228680591
O         6.80438237609911    4.93657057165116    5.58632443429608
O         8.11759594125987    5.49947542277036    7.31962154209451
O         7.68853055911135    8.19822733712775    3.38711942151483
O         6.14907904075776    5.12479868357838    0.43784853404421
O         6.35726393333291    2.06662679770604    4.97161675932123
N         8.25842782898722    6.02439373688520    3.77469301304515
N         7.03705906381957    6.62941792790616    1.89031053767646
N         4.59598795572170    4.42017705067918    4.18169100668324
N         3.78433840459187    4.12795949402995    2.14944383588672
C         7.77931777671138    5.49899518594942    6.15137948264344
C         8.69604772122238    6.27761885639317    5.12516697979030
H         9.72963058612472    5.95796059288687    5.27140162096992
H         8.61748535488248    7.34749564499790    5.32235766038623
C         7.65405555949383    7.04062156514730    3.05376866220974
C         6.81376902233714    5.33864344665782    1.42601781468589
C         7.46961349527562    4.36741033554696    2.27770911630509
C         8.14414771302980    4.73099976900331    3.38751194486871
H         8.63898238686520    3.99827323080045    4.00767880373327
C         4.24475256745092    3.54435904889659    3.26949792953542
H         4.31279296999765    2.47987953879922    3.38706852128032
C         4.36751909514334    5.66378121434085    3.63371105995328
C         3.84237992499238    5.48480787445526    2.33576517974319
C         3.52783183643166    6.56179946867547    1.52027903112932
H         3.13549608461943    6.41440401004730    0.52706573751918
C         3.76344893506998    7.82239562858218    2.03066269231612
H         3.53874144395943    8.68793606204384    1.42584011550374
C         4.29192669736556    8.00923924180817    3.31175064600981
H         4.47350280509906    9.01352215943049    3.66115322845996
C         4.60039539640348    6.94383433298507    4.13044385356911
H         5.01838534952646    7.07986630346938    5.11488456092253
H         6.66808657422117    2.31774274027921    4.09666882582434
H         3.47795946909769    3.65487430645074    1.31561839875321
H         7.12356929104885    2.02717318205826    5.55120245230244
H         6.58722242564851    7.37123215925182    1.36371879713466

