54
CSD_code = SANSAC | q = 0 | S = 0 | Stoichiometry = C18H24ClCoN6O4 | MND = 6
Co        6.66970570159304   14.39471299135300    5.80087721945575
Cl        5.64931342844199   14.54289390798524    3.88736422271461
O         7.61229523173124   11.76112997350229    5.07323331383738
H         6.70875771960275   11.64927340542653    5.56651071526679
O         7.97911603230784   16.83973844338940    5.41928615547051
O         5.68506849857333   17.02870475229472    6.46629040959741
H         6.61606216853545   17.13855953164384    6.01769331480856
O         5.47758653091550   11.92603422232042    6.43493377266007
C         8.80284089603042   13.58679320301850    4.36577071899899
C         8.92600035695952   15.01761578720365    4.45567408911943
C         9.76388530506555   12.75272145148967    3.58831782737769
H         9.45333925611883   11.71195026267699    3.62054121065109
H        10.76684474702375   12.84495036746334    4.00241809163857
H         9.78988934150181   13.09054547821682    2.55430022765973
C        10.03532711763811   15.78242777301809    3.80819868912158
H         9.92144438255310   16.83468354524484    4.05911469604527
H         9.99321331754166   15.66926268565082    2.72615014238109
H        11.00592666089293   15.43131716171029    4.15574155477844
C         4.33966283674164   15.22760447150536    6.88144806465823
C         4.26291706676363   13.78969971763032    6.88529423192423
C         3.21120205707892   16.08479933645826    7.34635616930804
H         3.47017973208883   17.13142950869664    7.21179186752454
H         3.00004115315973   15.89699588634814    8.39817641516926
H         2.31556099441964   15.85728330349689    6.77170383623359
C         3.08120929995330   13.04057030844781    7.41274689745488
H         3.28689625571153   11.97457634255896    7.34112610866668
H         2.19336886940554   13.26962334770418    6.82593424472920
H         2.88711767316455   13.30529583704285    8.45161962482056
C         7.92779881406067   15.24733957623140    8.36246942804063
H         7.92241603791635   16.27358270846731    8.05334555345150
C         8.29570936785750   14.70710919058848    9.55806749234650
H         8.64220761588922   15.16616715507280   10.46031413616614
C         7.69458176953700   13.11889992892403    8.19964807254102
H         7.48709943165309   12.13720343492961    7.81828869823865
C         8.27180201083426   12.38403168540361   10.49389429052050
H         9.13175395995361   12.64129216096647   11.11748794506893
H         8.44684224719508   11.40506639016710   10.03730192714085
C         7.01045475062321   12.34683400371014   11.33004871721960
C         5.77838442947178   12.14750665907472   10.71829911097144
H         5.72034022187490   12.01046206501577    9.64834095842722
C         4.62157081037420   12.12373379276000   11.47583952461462
H         3.66920666416944   11.96542032095632   10.99286763830691
C         4.68463893706285   12.29560918490440   12.84875967676841
H         3.78114532685244   12.27461061680309   13.43905545430476
C         5.90928805586706   12.49320587908012   13.46205482374588
H         5.96492640275370   12.62715531743197   14.53182783046043
C         7.06788294253995   12.52330006047392   12.70461761663885
H         8.02205715527538   12.67886416858541   13.18761146934820
N         7.80742828402782   13.10407588452096    5.03094188892519
N         7.99531658880142   15.58198827199229    5.16759343655480
N         5.46990215758711   15.69284522472866    6.46669760771104
N         5.32610479696716   13.20543554811921    6.42017823850615
N         7.54810414319376   14.24214709826301    7.52579874992939
N         8.14636444614870   13.35692066932957    9.43813588198214

