50
CSD_code = SANVOT | q = 0 | S = 0 | Stoichiometry = C24H18N6OZn | MND = 5
Zn        8.06286840605767    7.38227581363468    7.39631519568421
O         7.53215670219609    5.82821224885418    5.71007301170568
H         8.11139656160287    5.78126623017068    4.94456483588159
H         6.65276094165233    6.05339469984841    5.39279616248075
N         9.69596292004692    7.34480539079242    8.39182367912453
N        11.94353984356358    7.64157692903185    8.25852809183278
N         9.32550395772452    8.12205448021086    5.82251207378509
N         6.46525847597544    8.41891652077305    7.20493290387395
N         4.21584233537824    8.34066323815792    7.50510509502023
N         6.83053612073946    6.03576986316974    8.44314757851895
C        10.22706908806600    7.00530500261633    9.59694869107511
C         9.64044252206666    6.56713542684290   10.78089005537966
H         8.56877976715501    6.45299152999609   10.86012158984145
C        10.47549644622164    6.30119758057921   11.84150412349861
H        10.05448237562172    5.95922818830377   12.77640482829776
C        11.86500081363537    6.46625697720421   11.74796327689269
H        12.47259847097462    6.24190247485915   12.61298839210396
C        12.46384044849646    6.91040893894617   10.59345306873694
H        13.53137612434912    7.04711555636938   10.52077016079564
C        11.64064168795279    7.18820513967654    9.50194721727351
C        10.77291508328635    7.71939930699685    7.64395002878569
C        10.57863991418905    8.18020227782953    6.29729757213877
C        11.63692252458179    8.68108014824608    5.52941906648355
H        12.62075419548729    8.69534884360189    5.96838500101175
C        11.37854807108565    9.14093277846414    4.25798906009737
H        12.17157985166402    9.53859637160601    3.64228482784151
C        10.07124042807895    9.09232282650867    3.77796981562076
H         9.82497371267701    9.45197923845057    2.79174128546309
C         9.08705260807642    8.57365878345695    4.59640660208533
H         8.05768824521211    8.52594422121832    4.26480986031295
C         5.93595548443587    9.53617215904012    6.63677458343290
C         6.52712577932480   10.60800450318483    5.97454467168762
H         7.59981958761056   10.66138453289479    5.85382061324997
C         5.69496360637461   11.59521023660682    5.49847675432607
H         6.11905904195191   12.44366529388862    4.98030548772328
C         4.30500992538972   11.53585641926625    5.67152380511639
H         3.69936992839990   12.33954054583708    5.27774769154913
C         3.70189853584872   10.49142694278272    6.33163250773122
H         2.63344891688193   10.44792207553662    6.47361136764696
C         4.52175719405522    9.47672609635032    6.82455703442756
C         5.38573778184614    7.75550027774198    7.71088388131097
C         5.57653615639873    6.50808936531612    8.40498752855903
C         4.51435904107198    5.82988489358502    9.01064736015438
H         3.52905164653747    6.26154582872089    8.94691383384110
C         4.77043630708212    4.64480182084374    9.66574681339181
H         3.97294193340987    4.09845634204495   10.14741588819000
C         6.07557997306783    4.16220971000600    9.69829068913094
H         6.31596387129894    3.23908698606521   10.20089400247285
C         7.06797426756478    4.89310761045652    9.07155197953110
H         8.09594237764576    4.55866133342112    9.07093035488223

