70
CSD_code = SANWAH | q = 0 | S = 0 | Stoichiometry = C26H36Cl2N3O2Rh | MND = 8
Rh      -22.77738853793145   -2.20688710899953   -1.48327137539996
Cl      -24.40066789334273   -3.58701371149817   -0.51105911634946
Cl      -22.29557921422360   -1.46835024487769    0.68242607945501
O       -25.44872510104607   -1.14187602664784   -4.92103194490111
O       -28.33119544849463   -4.09243959994644   -1.81738640351875
N       -25.36573666333823   -0.80518662533490   -2.22145741416338
N       -23.87892463190320    0.61405463384258   -1.51096697467693
N       -26.70832892017243   -3.01793059472191   -4.74351214529648
C       -24.10993624490303   -0.69966259513658   -1.72592103236489
C       -25.94023073428608    0.43977507128299   -2.32652804397239
C       -24.98399932899539    1.35343687545366   -1.86402820263297
C       -25.24268751796835    2.71606934517374   -1.83456575454918
C       -26.48422421661251    3.12855125730816   -2.27833158351476
C       -27.43619100065739    2.21872924672247   -2.73728415616361
C       -27.18449942359996    0.86091831481582   -2.77076471716358
C       -22.68151178224274    1.23890302425457   -1.01694336180907
C       -26.01980598406633   -1.97623724607205   -2.72599439680878
C       -26.06912917705839   -1.94591908701238   -4.25708029228006
C       -27.85577797599698   -3.35488077350681   -5.10451753639587
C       -27.72668030969408   -4.57802245985484   -0.90039917468582
C       -28.17844473426782   -4.74886611699316   -5.54750730378557
C       -29.44524166673305   -5.19304041198758   -4.80854982256757
C       -27.01790160154378   -5.69092283928307   -5.23626655900586
C       -28.44149863480339   -4.70677571029407   -7.05951989269007
C       -21.85018824615446   -1.97090334152854   -3.47008673054105
C       -22.39014679006339   -3.28684379282587   -3.34731672761342
C       -21.65681427830345   -3.97526210346089   -2.30230550397190
C       -20.72223181621110   -3.07565047282412   -1.75577800815762
C       -20.86216352989226   -1.80924044829092   -2.44690078901598
C       -22.16608936819825   -0.99591168438491   -4.55900645486645
C       -23.30298625727215   -3.97134521302023   -4.31381453786294
C       -21.82068662946415   -5.43065014495976   -2.00157929799007
C       -19.66440989765458   -3.34853918409764   -0.73501210680987
C       -19.88915650437619   -0.68245536527315   -2.30228714689597
H       -24.51052135338145    3.42431393849277   -1.48121636048111
H       -26.72519407743584    4.18053003634993   -2.27171896381295
H       -28.39235187811848    2.58750919573619   -3.07564219165475
H       -27.92368741392627    0.16355939327265   -3.13106320035772
H       -22.22667632748355    1.84369554769525   -1.80456917019576
H       -21.98744351552156    0.47372710513086   -0.67557905215151
H       -22.92927732248021    1.88120441556171   -0.17136755738970
H       -27.03701894018565   -2.04616070082801   -2.33132656424472
H       -25.47060037507185   -2.86609409088798   -2.39798222668286
H       -28.68949890298155   -2.64611365238181   -5.12254024686531
H       -28.18615450530514   -5.33956486718408   -0.24797721099471
H       -26.68889268544066   -4.30795927214335   -0.65531941214024
H       -30.29103778722298   -4.56490490856337   -5.07887831248896
H       -29.68392343160654   -6.22171162560744   -5.06630921498582
H       -29.29466514203689   -5.12528122172321   -3.73419323988463
H       -27.54727552592095   -4.39148717980367   -7.59183991974611
H       -28.72503563552059   -5.69580056952383   -7.41074302440839
H       -29.24657695191441   -4.01387258814620   -7.29392387826124
H       -27.24852880397809   -6.69769279561951   -5.57477875739391
H       -26.11281075342843   -5.35151407865630   -5.73211740819976
H       -26.83548534460083   -5.71325513994956   -4.16507105546872
H       -21.60810318735812   -1.27226908986861   -5.45546751990935
H       -23.22569409486097   -0.99655859287584   -4.80782171794170
H       -21.87967409810016    0.01511555151008   -4.27901727898735
H       -23.85199325821096   -3.25065339610204   -4.91218734289842
H       -24.01182023778716   -4.61425472553988   -3.79524432513280
H       -22.71033610046328   -4.59601475532433   -4.98589784339489
H       -22.85747173470662   -5.65904972997738   -1.75520034743229
H       -21.54189572350634   -6.01577766136418   -2.87948265683007
H       -21.19758635313058   -5.73305501403940   -1.16383395388435
H       -19.73633530841770   -4.36443387905703   -0.35526399608218
H       -18.67975562861477   -3.20778139106222   -1.18340275907768
H       -19.75752947259114   -2.66272884603836    0.10707750084388
H       -20.25540331812945    0.22475087614100   -2.77572924898816
H       -19.68714822487307   -0.47706869562082   -1.25281399690829
H       -18.94631652409935   -0.95997245812514   -2.77860911652424

