46
CSD_code = SAPHUM | q = 0 | S = 0 | Stoichiometry = C17H25MoNO2 | MND = 9
Mo        1.19009427242037    7.48142054492511    3.10673074821548
O         4.04345695499277    7.49688490841722    4.28692815675896
O         1.28802324125011    5.14533272254587    1.08938690812140
N         1.88875495990636    4.76207153143558    4.53513750461732
C         3.00895335123357    7.51314714627152    3.77557721311133
C         1.30293936532245    6.05477472697154    1.79870620480012
C         1.62137224613700    5.77909954217560    4.01097139031772
C         2.61188121865326    3.59188186639010    4.87625693709335
C         3.06550073611756    3.71119422583666    6.33357016071496
C         3.81798639256674    3.51516466134320    3.93373918308679
C         1.69154404437950    2.38378969716140    4.68565671977246
C        -0.93839687046351    7.42321284817863    3.90026816676299
C        -0.97685096749755    8.19096022388467    2.70592029463052
C        -0.17778211373736    9.35639511050123    2.90969315353854
C         0.34441998963797    9.31679696612393    4.23756326312049
C        -0.11762156049237    8.12189112260350    4.85093623759504
C        -1.81379915085190    6.24367650682069    4.20886807077073
C        -1.89870892077923    7.96879577532773    1.54118002776382
C        -0.15938728010407   10.55702492746939    2.01092625658241
C         1.02657772194312   10.45992499228305    4.93309107712491
C        -0.00043924805800    7.78836509262121    6.30968684153672
H         1.90385887248526    8.26223715832056    1.90509887423621
H         3.68624523348182    4.59521641529915    6.46057554618208
H         3.64107758106923    2.83379580800191    6.61591634656113
H         2.20551225248784    3.79266883148362    6.99480259161357
H         3.48322238657692    3.47145750127130    2.89915833117635
H         4.40767429629209    2.62939408341444    4.15460976445707
H         4.44307360043700    4.39812364007203    4.05245086951324
H         2.22689391003365    1.46811632601860    4.92170437001410
H         0.82410069209212    2.45955333702029    5.33772287334739
H         1.34761678417745    2.33468509745056    3.65505911946255
H        -1.98839261662628    5.63826305900460    3.32007087669368
H        -1.36458084907369    5.60543951907452    4.96828605915036
H        -2.78253847707222    6.58599320616536    4.58276274952189
H        -1.45254624900484    8.32384076986729    0.61339403494670
H        -2.13554122772134    6.91283757690484    1.41993449420898
H        -2.83450485572883    8.51243135914673    1.69953171633286
H         0.76021048330805   11.12619882463383    2.13027666840185
H        -1.00129306089763   11.20912333782941    2.25972123981760
H        -0.24775042049948   10.26932114962769    0.96534592550831
H         1.63167084750087   10.11051980123048    5.76841587719530
H         0.27879578333531   11.15724073332038    5.32165615904644
H         1.67617432676292   11.00460134382836    4.24956198335645
H        -0.07084097317298    6.71461785339308    6.47688897140366
H         0.94940393709891    8.13184359221919    6.71824088640097
H        -0.80576063992193    8.27247453619042    6.86871915539845

