56
CSD_code = SAPJUO | q = 1 | S = 0 | Stoichiometry = C16H33MnN3O3(1+) | MND = 6
Mn        0.56103608690639    3.11526195537034    2.88538444543444
N         1.75548786710685    4.51574069089764    1.59764037381805
N         0.32519231119349    5.08252856402937    3.95546931915328
N        -1.05884208104433    4.00276293644802    1.70614206169561
C         2.26941158809280    5.55357200275247    2.50424487139922
H         2.99764478299693    5.07449380948324    3.16407192748929
H         2.78061059401071    6.35140194518976    1.94539041543800
C         1.15049903040710    6.15155487380935    3.35717270352026
H         1.60231151697640    6.77345248792810    4.13742284153386
H         0.52215476980412    6.80946398666629    2.75467199935346
C        -1.11565108048126    5.35929592760900    3.79361706144271
H        -1.65636495952743    4.61657299875475    4.38546118305144
H        -1.36398734105486    6.36013512346132    4.17645853566894
C        -1.57283296311659    5.23694771288669    2.33392589727900
H        -1.24798126910103    6.10688567768540    1.75992410435651
H        -2.66741870021764    5.24201160480322    2.32083668564231
C        -0.41656341461298    4.27114699856498    0.41269658611152
H        -0.17308972299724    3.30148641490852   -0.02486103000029
H        -1.10398348380879    4.79482270386347   -0.26776143858163
C         0.87238855503816    5.08483060168212    0.55483341213547
H         1.38302965124082    5.09221151052468   -0.41375606318820
H         0.64228514660224    6.12409732896811    0.79387770867750
C         2.89582944480981    3.84947178333990    0.95683665200156
H         2.53668146757250    3.09385544839367    0.26030714077506
H         3.51572136490425    3.35999527946315    1.70774160694340
H         3.51437880355428    4.57186266910855    0.41022691575304
C         0.64652454143436    4.97449693881481    5.38148710564941
H         1.69304928939188    4.69883946471374    5.49289938376309
H         0.03816110886511    4.20206851195139    5.84330938577133
H         0.46254257780449    5.92217001234167    5.90155306209298
C        -2.14675568845446    3.04452357242576    1.50593173968352
H        -1.73493838088693    2.11129227470992    1.12835083960069
H        -2.89125085409888    3.42633222972367    0.79842009082128
H        -2.62208110707177    2.83892252999343    2.46177251876319
O         0.84207882485969    1.75199613864704    1.63235404410536
O         2.13313031462946    2.56456447315349    3.86663198164040
C         1.46525965123558   -0.32574564505042    0.66134791771720
H         2.43003701696848   -0.58995691528041    0.23567978657766
H         0.80028653631512    0.02396062566686   -0.12447635798377
H         1.03717174506265   -1.22193093337429    1.10695145614272
C         1.62230171170729    0.73752781362867    1.72134433484065
C         2.59589372287699    0.57062015039939    2.69421567338745
H         3.21829144773814   -0.30859158766258    2.66292217906635
C         2.81466283431182    1.51365412849015    3.71895783291952
C         3.94597313811361    1.26163474311174    4.68461154757091
H         3.74062011120199    0.35960163132028    5.25718517540494
H         4.04955281487464    2.09975946903713    5.36869659227485
H         4.87964331303983    1.11073255075551    4.14799176148242
O        -0.63513774800760    2.32746849526684    3.86359780409253
C        -0.55800013901228    1.65718649969198    5.07242206907150
H        -0.42801992973897    0.58664080902139    4.83881606868669
H         0.31466531929785    1.97801979253738    5.66542224737728
C        -1.84237539716258    1.82251897300679    5.89232674243550
H        -1.78756621064249    1.21292777507148    6.78902811242404
H        -2.69956048473514    1.50603178410988    5.30330240206354
H        -1.98620804518062    2.86057065717893    6.18597058565059

