185
CSD_code = SAPNAZ | q = 0 | S = 0 | Stoichiometry = C54H120HgN2O2Si6 | MND = 2
Hg        2.96482445534803   10.62065986265486    7.32044731310720
Si        4.05457363374069    8.41811430985685    5.21834417254267
Si        2.01782019795008    7.13887391454217    4.89114664195831
Si        5.36475087752335    9.83005993013546    3.78138521186954
O         5.34779795309740    7.40311968839189    5.50624330300969
N         5.47967009278899    6.25062158174113    6.35493176408097
C         0.52771804774978    8.37725828338272    5.03199315707902
H         0.75136694662908    9.02209476744009    5.89178663208994
C        -0.84133283733781    7.75388311754871    5.29411819658801
H        -0.83320646325822    7.12030973518652    6.17552842506364
H        -1.16971149835689    7.15485203894126    4.45023658525544
H        -1.58338171312765    8.53772803570731    5.45302751505590
C         0.42780668409555    9.28370715937858    3.80988978637753
H         1.39149451485217    9.71869403601510    3.56840970605709
H        -0.27836426233980   10.09441448355070    3.98916686245447
H         0.07541015328007    8.72542317957449    2.94602611537449
C         2.00618495749549    5.94884890382477    6.43426589840568
H         3.04952368640505    5.65414896066981    6.58301544295859
C         1.57942627829797    6.66814289744868    7.71117030078785
H         2.11222602622362    7.61064061475682    7.82512013534048
H         1.78457023949383    6.05108129876944    8.58646767387879
H         0.51568841051929    6.88694637665633    7.70573541501728
C         1.18969639610500    4.66931930946251    6.27045300298069
H         1.52569486485793    4.09571133180088    5.40986396679682
H         0.13292049074022    4.89325497892892    6.14271747363488
H         1.29107987655488    4.03827540143736    7.15432796938235
C         1.89285793946878    6.09326564812646    3.24964645311800
H         2.49727126299779    5.19382034660817    3.39516200008301
C         0.49097341945457    5.62434864460815    2.86253083457090
H         0.00762723189410    5.09467454619300    3.67812565546893
H         0.54592795328663    4.94978788140238    2.00735093350121
H        -0.13220502584809    6.46722047982392    2.57514037068899
C         2.50258975431274    6.85230384060046    2.07363029453785
H         3.51791513864968    7.16969845018017    2.29490928959736
H         1.91695333768352    7.73760648723014    1.84017743984743
H         2.52772347232313    6.22351776695855    1.18374409071340
C         6.86521461645254    8.91109569904585    2.95820427508283
H         7.37924709103633    8.41237334919543    3.78603197855737
C         7.90734794989454    9.77918929741084    2.25495132207968
H         8.40806940891275   10.43548213433817    2.96087924818282
H         7.45974369755431   10.38576320640493    1.47320113403033
H         8.66840105170495    9.14669900107065    1.79613954023309
C         6.37994424654082    7.81930431009602    2.00955738433402
H         5.72746960923457    7.12503764894697    2.53055085662877
H         7.22160423251549    7.25421974934005    1.60892765607716
H         5.83004457501787    8.24185395334634    1.17222368894127
C         6.01502182773226   11.29692335665465    4.88206990734200
H         5.13154934014125   11.67741203390812    5.40972510064361
C         6.98594676502529   10.80095785573573    5.94830567776460
H         6.52649140340889   10.01440440124946    6.53984007420306
H         7.26757104081745   11.61105478489487    6.62024885191255
H         7.89335888373518   10.40819617049213    5.49517158045514
C         6.62852479497653   12.48940499264390    4.15129434266873
H         5.94781687017193   12.89417289809122    3.40855933181293
H         7.55420649798787   12.21902344632026    3.65252941921571
H         6.85405812975873   13.28467813879712    4.86242506732042
C         4.10820426487557   10.56024882386219    2.50484153720027
H         3.43901177524528    9.74516169045652    2.20992142312201
C         4.71998707756894   11.11384608684224    1.22194115500836
H         5.23380888854242   10.33463161220035    0.66601051560575
H         5.42899147785147   11.90905378397281    1.43617391152688
H         3.94181639855457   11.52424969839770    0.57723554479413
C         3.24821404889241   11.63861617221455    3.15906272306156
H         2.84673830786384   11.30394411589732    4.11407453554316
H         2.41361317909314   11.91155082228753    2.51329957762686
H         3.83121902579187   12.53613841279848    3.34252024033385
C         6.01568799859367    5.12980275934505    5.56794167913474
C         6.12872936665890    3.90201629716132    6.48587088103994
H         5.12187108441440    3.59744407748058    6.77900500614779
H         6.57770010339073    3.08652211432790    5.91640636548330
C         6.93311665253383    4.18084543463166    7.74484484277874
H         7.97332278093183    4.39680623992100    7.49847991235990
H         6.92987579493837    3.29959677269075    8.39004050582146
C         6.29485407328386    5.35335204766334    8.47181516009018
H         6.87031630486847    5.60920841036052    9.36315636031021
H         5.29148310053477    5.06084646227060    8.78777871802377
C         6.17348406431455    6.61412350728322    7.59830482918828
C         7.54553272528525    7.28276359819317    7.40272204608245
H         8.34557783865662    6.55750857922409    7.29514675107488
H         7.77429837720960    7.90641310745299    8.26378903603691
H         7.52229446801380    7.91398909866302    6.51901702899440
C         5.27400335992804    7.59273246523296    8.36546937210521
H         4.25293885260030    7.22668398942267    8.37802508074821
H         5.29005408383869    8.57815059440484    7.90768691193885
H         5.62409796985147    7.68646253119205    9.39061821810141
C         7.35195147232350    5.40812606094149    4.86048564164312
H         7.31823719879555    6.38593469740244    4.39071844781236
H         7.51530226831358    4.66114536713709    4.08708039552141
H         8.19515185555449    5.37612201892135    5.54136315664112
C         4.98041038607799    4.79008461555723    4.48823160896532
H         4.87347006463344    5.61252699996968    3.78944158096154
H         4.01784588030442    4.59225589527887    4.94718627459809
H         5.29599931816979    3.90531057468457    3.94086643208940
Si        1.87488692387921   12.82291521763544    9.42262145903115
Si        3.91171735429940   14.10202959734560    9.74981917095658
Si        0.56484371450025   11.41087262676890   10.85938000201195
O         0.58167787848288   13.83793225041554    9.13470625987716
N         0.44985531768491   14.99045831524042    8.28604044205944
C         5.40184668753653   12.86371757298263    9.60887401482586
H         5.17817756299324   12.21895935509984    8.74902296348596
C         6.77086862640475   13.48720447948142    9.34686454189757
H         6.76273736785746   14.12084834689234    8.46550522492755
H         7.09922021618429   14.08617334013545   10.19080502910044
H         7.51293449086907   12.70339003699567    9.18790387673315
C         5.50172360474841   11.95723842092770   10.83095732144007
H         4.53803967922098   11.52220967245899   11.07237650029212
H         6.20791223687277   11.14656312385594   10.65162225421195
H         5.85409497554758   12.51545907633827   11.69487637623918
C         3.92333105639218   15.29221950423703    8.20680499557762
H         2.87999927065420   15.58693443604078    8.05801618773655
C         4.35011991836428   14.57304121971198    6.92984498840442
H         3.81732515810430   13.63055107492506    6.81581318779135
H         4.14499881476941   15.19016239975247    6.05458125737011
H         5.41385617202474   14.35423078561580    6.93528919967151
C         4.73978915360671   16.57176731598540    8.37066389425150
H         4.40383490637129   17.14526637071650    9.23133948267073
H         5.79657685452132   16.34784353051401    8.49831274386514
H         4.63833993259706   17.20292046989349    7.48687154382710
C         4.03660553251583   15.14763300305316   11.39134565167441
H         3.43218536356368   16.04709372493674   11.24591764587373
C         5.43848357250458   15.61652595959345   11.77852422861533
H         5.92184791247091   16.14622418323174   10.96295706396057
H         5.38352368793742   16.29106181604169   12.63372496685790
H         6.06165962830284   14.77364409883608   12.06589616156866
C         3.42689914959925   14.38851953341197   12.56732587324504
H         2.41159178891574   14.07110171130497   12.34601180020305
H         4.01255540821445   13.50322190652858   12.80074896855494
H         3.40172218632131   15.01725927527959   13.45724367802255
C        -0.93563440456218   12.32979665034463   11.68262133312666
H        -1.44970985088431   12.82857169319407   10.85484985316412
C        -1.97777244685184   11.46170345586507   12.38587675917356
H        -2.47851022682343   10.80544389556351   11.67993189051022
H        -1.53015321659933   10.85508745920366   13.16758487856523
H        -2.73882301391133   12.09416287888647   12.84474044297139
C        -0.45040222863274   13.42155645720273   12.63132746494632
H         0.20207618684114   14.11584073736173   12.11036648954549
H        -1.29205985769818   13.98663451773545   13.03197844029195
H         0.09949533940518   12.99897936287672   13.46864769949530
C        -0.08553275407937    9.94405654833752    9.75870236623380
H         0.79793986297970    9.56356028478481    9.23106042377825
C        -1.05642799752768   10.44005823860915    8.69245616567926
H        -0.59694404055141   11.22661464696469    8.10094760919369
H        -1.33807095529768    9.62998326017444    8.02049361218757
H        -1.96383019073851   10.83283619420760    9.14559439773512
C        -0.69906286355224    8.75157024285623   10.48944770342081
H        -0.01835927348075    8.34675488934928   11.23216145314757
H        -1.62472617800279    9.02197076695116   10.98823359400742
H        -0.92464074492280    7.95632662916607    9.77829651836193
C         1.82134440212658   10.68065052656411   12.13593729825620
H         2.49053925886713   11.49572999470622   12.43086864035967
C         1.20952010292087   10.12704121081204   13.41881275159077
H         0.69569994776787   10.90625116888141   13.97475324983853
H         0.50051018442017    9.33184776321467   13.20454393314155
H         1.98767629210686    9.71661122276568   14.06351635378846
C         2.68130508465267    9.60229969773695   11.48165794258105
H         3.08278792710164    9.93699875545371   10.52665651884670
H         3.51589602054477    9.32934250309634   12.12742213288108
H         2.09828685441958    8.70479071988269   11.29817622998119
C        -0.08619732434847   16.11123440716564    9.07307106890129
C        -0.19924203405199   17.33906116657097    8.15519846829748
H         0.80761334026931   17.64367393579144    7.86209663419270
H        -0.64824398080698   18.15451199075035    8.72469850359141
C        -1.00360718767488   17.06026142910198    6.89620512746974
H        -2.04381304946025   16.84427131727314    7.14254286891590
H        -1.00037355186429   17.94153689281345    6.25104927766572
C        -0.36531064810553   15.88780394682146    6.16918829495554
H        -0.94074753903135   15.63197520050034    5.27782397193804
H         0.63806454025167   16.18033671315645    5.85326324528125
C        -0.24394078219174   14.62699688671206    7.04264440964904
C        -1.61597878569785   13.95832617259649    7.23820227908973
H        -2.41603683722623   14.68356334474739    7.34579808912463
H        -1.84473254999326   13.33470024962261    6.37711519169110
H        -1.59273322543594   13.32707118895262    8.12188737534789
C         0.65554616112732   13.64842360240270    6.27544136432009
H         1.67660784656875   14.01448075471663    6.26289600183296
H         0.63950491058779   12.66298437472238    6.73318128549057
H         0.30544755673869   13.55473747793733    5.25028892840366
C        -1.42246073293791   15.83285412214903    9.78050608581875
H        -1.38873264417862   14.85503533218545   10.25025239956133
H        -1.58583913706567   16.57981441658469   10.55392538253255
H        -2.26565127565782   15.86485615579214    9.09961742453621
C         0.94905800927436   16.45092231607344   10.15281353911491
H         1.05599724077835   15.62845328497902   10.85157377941991
H         1.91163038015025   16.64878801159976    9.69388997961642
H         0.63344556044178   17.33566892991443   10.70021004601915

