61
CSD_code = SAPPUU | q = 0 | S = 0 | Stoichiometry = C24H34Cl2Zr | MND = 12
Zr       -0.18955064273654    0.89180795380872    3.52658224038172
Cl        0.57676582032847   -0.83542440668164    2.13114530815271
C         2.14400263480368    1.71670394638652    3.60427494051476
C         2.01017401363022    0.74864081541577    4.63665403679271
C         1.13593705377243    1.26139653887248    5.62248743967762
C         0.69896543760307    2.53350539771000    5.20117410371578
C         1.32075029946334    2.81746629593299    3.96188828496752
C         3.12094831374688    1.70414842801228    2.44046981767746
C         4.15824006860185    2.82391509761095    2.67748583429354
C         5.07720322221362    3.04125833503229    1.47840477695733
C         4.26493765269727    3.35077276473908    0.22520013772506
C         3.27469853118489    2.22566333351210   -0.06047040876645
C         2.35179968128502    2.00803869772519    1.13779162056630
C         3.81867107659011    0.34318337190853    2.35862985990697
H         2.55432824674842   -0.18401860632981    4.72081172432701
H         0.91707077617624    0.79501238089724    6.57542313007729
H         0.14169829760584    3.23938842315584    5.80287488983423
H         1.29199812549911    3.78014166048532    3.46663312880676
H         4.75096214287277    2.57956000579505    3.56121794705726
H         3.63201910843851    3.75815442847961    2.88429918462671
H         5.68924332422242    2.15510439244861    1.30729875756017
H         5.75521832481988    3.87021941301429    1.69394162042503
H         4.93276094049688    3.48611876260130   -0.62782109661705
H         3.71837357046757    4.28615823724664    0.37148497612306
H         3.81648080759598    1.30879242672147   -0.29292908183575
H         2.67137605437448    2.47790365570250   -0.93561801115246
H         1.77762826660495    2.92847959320661    1.28064359255396
H         1.65651749401906    1.18510033680883    0.93102808167041
H         4.40122217277314    0.16442533761640    3.25973257580693
H         3.08410744369938   -0.45059474934740    2.24313539695128
H         4.49515569274196    0.30217915156565    1.51149228331165
Cl       -0.95469237795286   -0.83672631186052    4.92275592069607
C        -2.52321229420404    1.71673626343494    3.44946726492431
C        -2.38947789098295    0.74869886107238    2.41704095589426
C        -1.51507923645760    1.26128371985778    1.43126788420875
C        -1.07836533856827    2.53353457344128    1.85242506808787
C        -1.69996597167464    2.81746949126142    3.09183947350173
C        -3.50001597054679    1.70414217444596    4.61339581808937
H        -2.93344141921039   -0.18407719926480    2.33307779428874
H        -1.29618432243877    0.79483489586386    0.47836576503686
H        -0.52116075367326    3.23943280097944    1.25067535002816
H        -1.67115306043406    3.78011029445311    3.58715877744245
C        -4.53728067583069    2.82390513268554    4.37634773040382
C        -2.73088540773424    2.00823713795994    5.91604476984975
C        -4.19791263687187    0.34325436569522    4.69520492646117
C        -5.45614910624790    3.04125643698953    5.57549562798711
H        -5.13001689705939    2.57956895411267    3.49261153070607
H        -4.01103274101550    3.75813466157515    4.16956909374500
C        -3.65373208817121    2.22561838287367    7.11439442745769
H        -2.15660207233160    2.92861181915194    5.77315761156917
H        -2.03568534682658    1.18526059528323    6.12278038156881
H        -4.78049120780374    0.16440446511857    3.79413925566956
H        -3.46340286497061   -0.45051935723725    4.81074636393559
H        -4.87433108234640    0.30229421741576    5.54238842955388
C        -4.64386568168747    3.35080179958076    6.82868544444957
H        -6.06822154895656    2.15512931506248    5.74660941739044
H        -6.13416647597874    3.87022155428912    5.35998376588397
H        -4.19554230653283    1.30875551238650    7.34688108276945
H        -3.05038060339263    2.47791066849924    7.98950091478023
H        -5.31163972286091    3.48611166013082    7.68175245337592
H        -4.09731684957777    4.28620169473271    6.68236960815094

