65
CSD_code = SAPSIM | q = 0 | S = 0 | Stoichiometry = C24H36Br2NiP2 | MND = 4
Br       -0.89931246809094    1.53955367514233    2.77234173976850
Ni        0.42373742633257    3.35402348511533    2.61544240138545
P        -1.12761276885490    4.54596754059890    3.57358186307024
C         1.47340204987721    4.88630811205131    2.38465398253356
Br        3.12977139994470    4.67734051845698    4.79726400248956
P         2.01435411589534    2.11781194321772    1.78166412193819
C         2.46410943985677    5.40043774567742    3.16837650647901
C         3.99907483683709    7.51998742650870    2.95850544493773
H         4.58434874712859    7.41247407215946    3.86063926314791
C         4.22813685492270    8.61226170933476    2.09637193314152
H         4.99770895607162    9.32009260192356    2.37086356156338
C         3.52025023549213    8.81319631731834    0.93676719169046
H         3.73238972560874    9.66831828420769    0.31113422516429
C         1.67035386685544    7.93596183347865   -0.58578751228577
H         1.77334869835501    8.73775475661122   -1.30294469196885
C         0.73096634292950    6.95242949842225   -0.77464603080681
H         0.09597427386763    6.99226144112019   -1.64895579179491
C         0.54842669137780    5.88022370082707    0.12241404624869
H        -0.21424924989291    5.14426533223773   -0.08631475690605
C         1.34557561316542    5.80747742855161    1.23738685449564
C         3.02448278122898    6.62155917437460    2.61235416526669
C         2.50641217733000    7.90172646660399    0.55481380678705
C         2.30310351233218    6.83155449330244    1.41852764771320
C        -0.82018895091288    6.34508648353199    3.88975514133340
H         0.03294909147543    6.38144455553778    4.57497363236153
H        -0.48741646020246    6.79075772069978    2.94753055799042
C        -1.97541978755778    7.15654325769296    4.45911296338586
H        -2.78133788728940    7.25731525823824    3.73615056357973
H        -1.62533120595857    8.15667552209582    4.70965647708537
H        -2.37581432091287    6.70715497001056    5.36537823217169
C        -1.45878581254304    3.87156671901598    5.25812105793684
H        -2.03563946693852    4.59504445396650    5.83896909896958
H        -2.06250880893318    2.96930720193256    5.12760750613918
C        -0.15383641243489    3.51785224923650    5.95975696551382
H         0.45522259231768    2.88665452150522    5.30438675638420
H        -0.34141170392150    2.96802428513064    6.87941681604102
H         0.42098720033017    4.40901642269466    6.20274360498707
C        -2.82630634483740    4.50180317754079    2.85873553580936
H        -3.15337971971592    3.45875188975303    2.87725666495171
H        -3.48389687242138    5.07893523347537    3.51335497032765
C        -2.86948207310998    5.02638851434108    1.43035796797204
H        -2.47820175773019    6.04092253041802    1.36760682345482
H        -3.89041567395601    5.02468840533115    1.05343743586025
H        -2.27181814805489    4.38495462855602    0.78447179848410
C         2.52753968539366    0.63574763500970    2.74996157301078
H         1.62365493187341    0.04730745546823    2.93099989153015
H         3.20129552984375    0.04246696829963    2.12567530299466
C         3.18047946375941    0.99773462377677    4.07705898239522
H         4.08718930120889    1.58104177654212    3.92994310301537
H         3.43718637428019    0.09702541475867    4.63086320343904
H         2.49722275869291    1.58616912076080    4.68721058139228
C         3.61592199228220    2.89783288339186    1.27743073285271
H         3.36300631951276    3.64479981492490    0.51707382201838
H         3.99250762153731    3.44609820605490    2.14423993039534
C         4.70791666682717    1.97203401019618    0.75967271814153
H         5.05288648960695    1.29480500634884    1.53684324305359
H         5.55924640282498    2.56775190152736    0.43384942273008
H         4.37067554907125    1.38272105948251   -0.09004550085261
C         1.43304600180545    1.31435168894435    0.22553272969441
H         2.28704380214454    0.90112772757488   -0.31513611715475
H         0.77305662217366    0.49197903251111    0.51370779463062
C         0.66640776586364    2.30793313219141   -0.63667903691144
H        -0.16123848845764    2.72338636096542   -0.05531821913670
H         0.25092674330361    1.82197713049072   -1.51725833775819
H         1.30800773118361    3.12663349284761   -0.96056036428309

