47
CSD_code = SAPSOS | q = 0 | S = 0 | Stoichiometry = C18H24Br2NiP2 | MND = 4
Br        9.83380160920681   15.45147587901104    2.41051478592652
Ni        7.25785295358706   13.28223814413781    2.17475210517962
P         6.38325016625932   14.89293565496235    0.91163993172789
C         9.19031424626981   13.67593104906013    2.08688529137326
Br        9.04878544943001   13.15675168976567    4.98248511543001
P         5.65387258841138   12.25023968577276    3.30837509482330
C         8.91520812025782   12.74246241483960    3.11789621863905
C         9.52288611436118    9.05428723183347    2.29388700622240
H         9.52269384043366    8.05901850017418    2.71629793995559
C         9.86119957120327    9.21761539946805    0.97261578803851
H        10.12227107453219    8.36144675858555    0.36749847831286
C        10.32123681910690   10.88556655547658   -0.89401741515326
H        10.60466203378235   10.12079893765210   -1.60267406091192
C        10.39312228457978   12.21278423061208   -1.24185938511212
H        10.73441311857065   12.47778049577283   -2.23288217621368
C        10.05820203984912   13.25708953907981   -0.36029764333092
H        10.16570429430089   14.28434689979427   -0.67631526053957
C         9.61181691042590   12.92822143241648    0.89652019139799
C         9.55269520455957   11.55965191378663    1.25353490625097
C         9.18046802628426   11.39458431651184    2.60973386748583
C         9.90679998779117   10.51234130842770    0.40511514106675
C         6.15220068395196   16.45977618583534    1.84429915013952
H         7.11512367333674   16.80172162404894    2.21815707029297
H         5.49681502074060   16.28530701092480    2.69516249152380
H         5.72051529170647   17.22360989697916    1.19985796324496
C         7.29843995016236   15.53328881658174   -0.54693006602538
H         7.46027197916404   14.72573071881941   -1.25880269320584
H         8.26400273001780   15.91628337898978   -0.22328957556308
H         6.73655696958417   16.33442419687405   -1.02470309983285
C         4.70644661137563   14.72306233614746    0.17165729345821
H         4.44973012840585   15.61315988086609   -0.39995659101451
H         3.97382192752180   14.58174028854104    0.96345273700044
H         4.68409041986337   13.85448818198438   -0.48310115553012
C         4.84946267706979   13.37263676076372    4.52237328133220
H         4.39173924203932   14.20852510091158    3.99711416263741
H         5.60716475966582   13.76303875348158    5.19980400021539
H         4.09112508397493   12.83956636747399    5.09303554638922
C         6.02146262965045   10.82507091410941    4.40739110840387
H         5.12104358320178   10.51316073115671    4.93432170121925
H         6.78154370114105   11.11052885154765    5.13175801977040
H         6.39743218920225    9.99690707108085    3.80883882034198
C         4.17654330727541   11.57626908035505    2.44468709855451
H         3.46441042369937   11.17576334713218    3.16421513104601
H         4.49096178258476   10.78430502526507    1.76780943495761
H         3.70033929336456   12.35866020444547    1.85928466282409
C         9.19175298264227   10.12828929275880    3.14131047141374
H         8.96654650549467    9.94531794586993    4.18174711602311

