65
CSD_code = SAPTAF | q = 0 | S = 0 | Stoichiometry = C24H36Br2P2Pt | MND = 4
Pt        1.41052829250599    7.72215226537708    1.76447477501753
Br       -1.27731028818642    9.93870363084624    1.44933756720166
P         2.35570398577102    8.92905996060545    3.53780825221351
C        -0.61954047209573    8.16212060564319    1.84758805692424
Br       -0.59682851693140    7.58953055761583   -1.07016771225338
P         3.14798587714367    6.56873325031890    0.70921807803200
C        -0.34690428929797    7.18485348533923    0.80398226683638
C        -0.74829495722387    4.58818662853760    0.81205612360421
H        -0.46885554228329    4.37916386084679   -0.21088640183397
C        -1.15046349614111    3.53864494920022    1.65849333752485
H        -1.15041698684092    2.53544244825575    1.25550276723876
C        -1.55078414471448    3.73620010750098    2.95729376275664
H        -1.85879757055832    2.89798171505718    3.56535480009508
C        -2.03020810428198    5.44459061287571    4.78017498693349
H        -2.36340439317498    4.69877123773057    5.48734475155821
C        -2.06030300941061    6.77640022646421    5.11376756799632
H        -2.42304962430437    7.06549269650491    6.09051303928720
C        -1.64973883736989    7.79610842635648    4.23494370311854
H        -1.71788093940028    8.83189523828398    4.53751300054511
C        -1.17594586174958    7.43680139330147    2.99751143966640
C        -0.73283519127134    5.86425735149119    1.31857898824400
C        -1.58803545339884    5.04116499949645    3.49943019964890
C        -1.16747547496618    6.06519436253069    2.65040933922593
C         1.84913124433950    8.04995412884989    5.07965909737852
H         2.42720852382473    8.38758904983759    5.94226533048296
H         0.79845564606645    8.29622883223942    5.25359764057887
C         1.98688648103981    6.54581287194087    4.87403767025899
H         3.03340920876411    6.25327536825833    4.81421615303147
H         1.49625840723263    6.26391845117338    3.93504169058155
H         1.51775272949865    5.99222525319460    5.68462050394677
C         1.68401613172943   10.61872469081966    3.83495785395334
H         0.59819219751796   10.51249654630130    3.90428588839592
H         2.04780859501267   11.01205078894174    4.78723160113422
C         2.02493112819354   11.54428029443054    2.67362409704489
H         1.66909293344592   11.10946010422709    1.74016754873164
H         3.09921875253708   11.69852315549923    2.59355903147820
H         1.54423655392943   12.51177272246461    2.79928593078481
C         4.18568746382613    9.15124645419872    3.75642327821042
H         4.59652849769777    8.14035618827207    3.84098244489307
H         4.56192686534575    9.57441630584768    2.82150879343575
C         4.64801110778494   10.00649051603772    4.92832731080568
H         4.23802797537800    9.64981534484261    5.87016198426462
H         4.35707565819233   11.04500511564584    4.79525837593822
H         5.73379163787344    9.97009330424246    5.00105418252350
C         4.05695789032045    5.19939562825714    1.55133959410046
H         4.88695430195532    4.86021047542162    0.92746667522864
H         4.47481441072336    5.61784781334151    2.47103006617845
C         3.10790051499949    4.05506401932911    1.88678194641401
H         2.22425273474543    4.43778409746719    2.39734814583377
H         3.59110578148120    3.32629197067310    2.53457638979298
H         2.77838696875319    3.54498048138651    0.98478350787298
C         2.64907258452902    5.82168710166415   -0.90503756883252
H         1.78885081731792    5.18092650689463   -0.69360113730312
H         2.27977224887265    6.65182868058867   -1.51444726989121
C         3.70333129105045    5.03728135676975   -1.67445234697745
H         4.01672809901063    4.15040351723234   -1.12906993142905
H         4.58134546817699    5.64397470794166   -1.88279911265935
H         3.28776418300487    4.71535665237965   -2.62754485004227
C         4.50877675274801    7.71564783524457    0.22430169366236
H         5.09557121743563    7.91960683484782    1.12338419123373
H         5.17038981420581    7.26034556017988   -0.51516367201587
C         3.88567223967681    9.00329023061817   -0.30460153697425
H         3.09114556817611    9.32923422903108    0.37814020520551
H         3.44182482273298    8.84489108825282   -1.28461028784827
H         4.62318954911895    9.79906571496171   -0.38713379894269

