57
CSD_code = SAPWUB | q = 0 | S = 0 | Stoichiometry = C17H35Cl2P2Re | MND = 9
Re        2.92666385825759    2.90564002161757    0.18046501433162
Cl        2.51670009388215    0.62443458302776    0.85358163994269
Cl        1.86314915449678    4.59322603756629   -1.25541236125489
P         0.75554098964400    3.12000547542118    1.13754874945131
P         2.88172783547816    1.83448790535229   -1.94521241784426
C         0.24132582430437    4.81472098762032    1.59952476563342
C        -0.66595804777871    2.58663014790372    0.12029607634324
C         0.41032004253741    2.22369218325751    2.69562464554074
C         1.24592628542613    1.43410549139506   -2.65531430684527
C         3.64404448261348    2.75836279428493   -3.32921367981931
C         3.72497965655720    0.21778730326073   -2.10355281678411
C         5.36429006102107    2.92011413285829    0.36319311847421
C         4.94307365977344    2.59237532786883    1.68523735934742
C         4.12423714300036    3.65399546020864    2.17253698562384
C         4.07172993745191    4.66939126862198    1.16930624942225
C         4.84231395368316    4.21174219124271    0.04193379634972
C         7.81248522555820    2.69860183403669   -0.00795150705398
C         6.42383233255728    2.18769400390052   -0.40268510487541
C         5.32428177797407    1.37970560483007    2.46233467996527
C         3.67109710214399    3.78196459506050    3.59288008773708
C         3.61967677427395    6.08494175754075    1.33444800283461
C         5.26348418140801    5.10466928074896   -1.08084340525024
H         0.30493309094254    5.45797817822864    0.72627613569407
H        -0.78204316421847    4.79264384220249    1.97035617144268
H         0.89750374902314    5.19963208806579    2.37543041910406
H        -0.55944792446259    1.52587457916539   -0.09622193542581
H        -1.59295722971876    2.76212323340184    0.66394908793113
H        -0.66574083075243    3.15261898622484   -0.80808986080033
H         1.11726176053802    2.52810784031972    3.46217615235484
H        -0.60264017718056    2.45089090796190    3.02469656996717
H         0.51753689424530    1.15593184283766    2.52508694485434
H         0.73279147765601    0.74886064358489   -1.98413148641303
H         0.67131569591962    2.35221410766304   -2.75191394938653
H         1.37359332524463    0.96962121306473   -3.63192185516526
H         3.16363971943486    3.72898084542728   -3.41707897361578
H         4.70432454409650    2.90058876207648   -3.13880714942090
H         3.51550700973165    2.19573169595937   -4.25242362292568
H         4.76350047159817    0.31078853481742   -1.79802139930744
H         3.23516370366277   -0.50476768301078   -1.45634107039567
H         3.67785149746693   -0.11459384255230   -3.13956111183464
H         8.58420812203011    2.16206091781554   -0.55642307159828
H         7.90419931587963    3.75993133210554   -0.22887770688080
H         7.98279617915026    2.55693972695266    1.05733744064339
H         6.35996384061041    1.11623742630563   -0.19714912000674
H         6.28409049648259    2.33012601964248   -1.47754823447342
H         5.47980556523314    1.63032655037429    3.51050406161254
H         4.52640282147890    0.63287573698999    2.40447007210774
H         6.23243021875178    0.92981917590043    2.06861643548334
H         2.81507434550945    4.44873661654999    3.68084937872372
H         3.40103382324277    2.80997517578589    4.00228288307968
H         4.48173014365613    4.19276635450254    4.20039587912037
H         2.97267432139413    6.37774640980371    0.50683961141088
H         3.08195505218005    6.22688173122416    2.26891777507503
H         4.48654496488127    6.74888084285503    1.33298281921319
H         5.84959838097465    4.56700841831436   -1.82220454028118
H         4.39060044632485    5.53801126115040   -1.57027941899801
H         5.86927602473254    5.92516214066820   -0.69049890216370

