47
CSD_code = SAPXAI | q = 1 | S = 0 | Stoichiometry = C18H27BrRe(1+) | MND = 10
Re        0.12746194760297    2.64795537504912    2.08990026637295
Br        2.37283406214449    1.66767969436465    2.20624074643797
C        -0.22764077029062   -0.72108800318268    2.02314903043183
C        -0.70160409573158    0.61732621418073    1.68196389393746
C        -1.48799728628051    1.44690939745035    1.13276458231551
C        -2.66667083609325    1.74752700620528    0.31517006204665
C         1.72013149106954    3.04323232629909   -0.86029412522144
C         0.68477104403101    3.40474782375041    0.10635161105876
C        -0.29799448360297    4.09694251542679    0.51781665779668
C        -1.25524085317658    5.17148271002482    0.24200673798332
C        -1.37053198766641    2.14172826290715    4.37661159834890
C         0.00293698024780    2.19494521714634    4.70063083732857
C         0.51311660008705    3.46357749375014    4.25251174085908
C        -0.59515419992415    4.22002809638856    3.69349244195925
C        -1.74630754975989    3.38038052193068    3.74596495959924
C        -2.32757830683718    1.04253356592029    4.65484670252049
C         0.80054637527832    1.19796069128018    5.45882599300839
C         1.80122002356145    4.06530485797902    4.70222492923745
C        -0.59478987604079    5.70609010573098    3.55036591708647
C        -3.15170207463161    3.78447360119270    3.47693369611353
H        -0.94472901821806   -1.46101931566259    1.66898941787353
H         0.73943744196765   -0.90617675001230    1.55593065703881
H        -0.10378668834618   -0.82684099027101    3.09992451072827
H        -3.23926340415905    0.83501713387091    0.15399244914222
H        -3.30203669391645    2.48586655123319    0.79880409771739
H        -2.35357406448436    2.14528049326059   -0.64904593053169
H         1.58480366788269    3.62886588405745   -1.76873622825480
H         2.71387330705482    3.23510851214723   -0.45503478391670
H         1.65745665083416    1.98222376756088   -1.10203511871188
H        -0.89454418777761    6.11544680374015    0.64858264221587
H        -1.36673221061687    5.28306698957376   -0.83641480424200
H        -2.22794289366799    4.95433881573739    0.67695672322101
H        -3.17628959818577    1.42387130987936    5.22190903383724
H        -2.71260694195503    0.63148315111481    3.71917576772301
H        -1.86493823921810    0.24017582641790    5.22160662339901
H         0.23119084175994    0.29517671515789    5.66042360929028
H         1.70441247025386    0.92389590092370    4.91271517280257
H         1.11594352574227    1.62795137960039    6.40999624107977
H         2.57190653870872    3.30820290295547    4.83002846240059
H         2.16067614809329    4.81794773105058    4.00104830879754
H         1.64683146186238    4.55561333585213    5.66589661405599
H         0.29813822312253    6.06422681841251    3.04007639079650
H        -1.47560140162514    6.05699986447726    3.02125256904935
H        -0.60276942712164    6.15149130745718    4.54709764821770
H        -3.20983356828124    4.56694858635470    2.72532385887284
H        -3.75264772147236    2.93530232731380    3.16173729060299
H        -3.58878042749751    4.17849748383113    4.39662050062349

