125
CSD_code = SAQBES | q = 0 | S = 0 | Stoichiometry = C55H59ClLaN3P4Si2 | MND = 5
La        5.98179385640943   17.03251903260705   15.19019066620522
Cl        8.10087463372886   18.49360700862613   15.14479230833210
P         3.80367270622194   18.86780578480107   13.79051577427144
P         4.07428788022268   18.92927354354554   16.84414796207914
P         3.92072524581924   14.98230520538088   16.15833994980077
P         6.32554336689972   13.40499422209302   15.63938931023487
Si        5.65790267055665   17.90064639932960   11.63639921189207
Si        6.01251121027969   17.75598530651139   18.79168679159752
N         4.97316891179658   17.88538121883953   13.24464610665409
N         5.30270489361465   17.95500025420882   17.20997744595105
N         5.55400189783830   14.89822848832249   15.77081262852321
C         3.14480632530549   18.58130214146708   15.39017419467709
H         2.72145810008877   17.57174326015512   15.46330781959314
C         2.35994269891243   18.76736787703001   12.67476913027293
C         1.23158761458954   18.03075389065661   13.01286526722191
H         1.15507994002179   17.57512221917875   13.98846142340078
C         0.18664792173842   17.89736987383146   12.11501420473078
H        -0.68279660632982   17.31683990728625   12.38737976622262
C         0.25153617340858   18.50836817291261   10.87456602519932
H        -0.56500444277564   18.40534816583897   10.17528808169386
C         1.36525111681325   19.26007733303849   10.53644986400987
H         1.41695007549353   19.74947274081815    9.57447857946845
C         2.41380667447284   19.38280535704577   11.42900021086708
H         3.28191501048477   19.96949315758514   11.16728668717803
C         4.31098548186852   20.60560386551646   13.67568455947135
C         3.36186412439884   21.60906365061101   13.52127601980284
H         2.31230255532069   21.34974953441582   13.50545854212007
C         3.76731539455653   22.92346258159715   13.38617862488923
H         3.03152782525924   23.70363554161724   13.25532684948489
C         5.11652440023234   23.23939746523169   13.41460597817986
H         5.43043806131985   24.26668850463835   13.30170577037502
C         6.06144239919250   22.24258636152096   13.59163122151206
H         7.11190767634421   22.48907622298020   13.62658922329734
C         5.66148098098147   20.92464644121850   13.72103520052248
H         6.39398907653371   20.13749181486528   13.85580879851545
C         4.59507344358150   20.66522995189528   16.79054889381706
C         3.64884529715379   21.68176532461856   16.72007608004974
H         2.60093479239150   21.42431856057185   16.64770630703689
C         4.05896975563908   23.00128455000665   16.74024310805502
H         3.32715962638643   23.79462302394146   16.69165695942107
C         5.40863072653280   23.30721182524442   16.82622790953957
H         5.72366243708194   24.34018713654282   16.85008508430451
C         6.35203218682307   22.29449731522499   16.87261936900726
H         7.40365072469166   22.53409877755909   16.92262457578017
C         5.94725462649823   20.97156032594438   16.85322101817832
H         6.67127342363217   20.16730707405883   16.87467215182225
C         2.84771857827731   18.83323144744955   18.18789435687058
C         2.14811073961683   17.63652385187488   18.30211759760437
H         2.32001789299523   16.84903794026138   17.57865029683506
C         1.26293098409534   17.43717277030796   19.34389249209166
H         0.72691787213478   16.50294619124572   19.42568784138282
C         1.07575711670269   18.43268332874908   20.28976123090803
H         0.38727076654482   18.27984902533328   21.10775515421846
C         1.78095516706176   19.62020895661847   20.19094320676703
H         1.64411355528095   20.39312685651696   20.93347989646917
C         2.66740952089758   19.82094213102573   19.14665965697323
H         3.21686547053271   20.74933318898474   19.07695958082407
C         4.50084141377936   16.94083018099035   10.44931596017186
H         3.98229627627713   16.13660384654887   10.96290693217719
H         5.07092917575328   16.50995730734898    9.63299651142251
H         3.74564960686921   17.58833340990462   10.01676252191365
C         7.33123709396503   16.98749548219246   11.79835451991353
H         7.92026423290141   17.37032145943793   12.63306769011350
H         7.91666622791599   17.14743544865975   10.89814008616727
H         7.21100497204379   15.91318071960298   11.90885194368542
C         6.10206336917602   19.58690119158319   10.84156119011692
H         5.34693481987325   20.35168513740246   10.98841096187305
H         6.24167976533961   19.46139321719045    9.77203883780935
H         7.03075451810719   19.97269212807338   11.25065726123642
C         4.88365224904230   16.71926786277045   19.93690584961112
H         4.14496370593173   17.33879324686558   20.43539316345463
H         5.47272709576330   16.22703472497479   20.70343979824547
H         4.35186271686995   15.95034578407840   19.38464446931739
C         6.41596918294209   19.38412439047595   19.71235783905232
H         7.27924031138115   19.88845537704294   19.29116547063025
H         6.63191521620363   19.17767173167452   20.75544865633013
H         5.57890662239419   20.07451562031069   19.67720011836046
C         7.61750143313291   16.79396480703451   18.42344048200305
H         7.38861874489017   15.82139655752028   17.99309617797710
H         8.18732375280761   16.62399170597839   19.33079945490953
H         8.26286280334033   17.32608700337466   17.72684579641207
C         3.66145557036110   13.81574789242931   17.54661470642667
C         2.37149915106098   13.36933343895816   17.81914113964835
H         1.56379188413046   13.64045332793020   17.15095981501604
C         2.13015247347542   12.57126765222341   18.92096763075195
H         1.12915152198515   12.21641884413025   19.12203051708184
C         3.17125748738171   12.22510930801847   19.76828600419411
H         2.98188544493389   11.59772492653157   20.62714128169796
C         4.45175151516334   12.68946950659249   19.51688943965907
H         5.26145270475809   12.42946568627940   20.18356880951951
C         4.69353584368674   13.49201202931216   18.41681111620116
H         5.68746831431053   13.87765912710707   18.22590308621681
C         3.18324467462172   13.96575485307121   14.80314895886747
C         2.69694834810572   14.64956644627418   13.69400435302494
H         2.66005943947929   15.73465317426504   13.70759530923989
C         2.28606607614795   13.96055413184607   12.56721398989715
H         1.90318828118915   14.50187218852476   11.71289245328920
C         2.37596785990341   12.57906933539724   12.53631976206973
H         2.06520488034534   12.03676081689075   11.65523033748111
C         2.87325043440830   11.89224655860651   13.63242501149951
H         2.95405724829540   10.81520544290261   13.60219041919874
C         3.27418128439052   12.57954520023305   14.76330836843372
H         3.66389887897992   12.04288006202511   15.61835493138123
C         8.02948393241651   14.08019077599391   15.88008313163154
C         8.74067432843689   13.72652514061693   17.02021034764269
H         8.32188498323299   12.99299019106865   17.69684074404075
C         9.97100752011711   14.30278761819633   17.28694439964736
H        10.51684455226261   14.02193177583409   18.17616685178630
C        10.49821974943367   15.24214725597504   16.41706194546112
H        11.45362432888958   15.69862821147307   16.62873640351300
C         9.80690739123187   15.58920382201448   15.26632834414352
H        10.22937301370423   16.30587960030223   14.57688737071848
C         8.57624269685834   15.01139448182941   14.99562124672499
H         8.07842863854253   15.21867936534930   14.04764801500974
C         6.47446427652164   13.12884622113460   13.81716352436879
C         7.18681454309681   11.99961392558498   13.42194662558810
H         7.67010668686648   11.39594724874586   14.17920873835614
C         7.27749112287252   11.65617588945994   12.08782666165294
H         7.83752450204837   10.78152379796771   11.78960940445526
C         6.63721392448827   12.42930932676050   11.13150080775705
H         6.69477505749169   12.15636095932078   10.08787027243516
C         5.92135647682060   13.54958128593554   11.51533161237202
H         5.42126569509300   14.15207934259166   10.77158173396027
C         5.84350639585562   13.90215466698443   12.85259877328221
H         5.27425500372511   14.78194870696785   13.14731094547199

