125
CSD_code = SAQBAO | q = 0 | S = 0 | Stoichiometry = C55H59ClN3P4Si2Y | MND = 5
Y         0.67097166730813    7.20176568691022   15.63514331891114
Cl       -1.63789792297587    6.38893036555903   15.74680316856933
Si        0.61238569732612    5.10684179513070   18.62840699805362
Si        0.36335476758064    4.69879671962147   12.99746102876684
N         1.41781488232176    6.08023314073586   17.41082362189475
N         1.31558080529296    5.44579898250345   14.26695867832849
N         0.75597810079196    9.25497815219261   15.06148704586482
P         2.99506498344882    6.07575550543020   17.17688490980571
P         2.90049449430738    5.59657653638958   14.26289307423752
P        -0.11766186568411    9.13089820710832   13.61551596972591
P         0.69062543084721   10.65811858116998   15.99855258551715
C         3.32738523502920    6.72264845414913   15.56164457713639
H         4.37874536919818    7.02970511714739   15.48016684656246
C         3.85322687095026    7.26130531800922   18.26028766062525
C         3.07909692273150    8.01153639488968   19.13488368064772
H         2.01076449614150    7.83445042334332   19.16900364107163
C         3.67064666862969    8.96509456235486   19.94385869484256
H         3.06711063269218    9.54332678096313   20.62772012831379
C         5.03724672941870    9.17618865957201   19.87748544605526
H         5.50084612255420    9.91893336447423   20.50955570637254
C         5.81192788459117    8.44141151956798   18.99411799961048
H         6.87705007895034    8.61415525062953   18.93715532750031
C         5.22309043741772    7.49205381080790   18.18054158752947
H         5.82573098455430    6.92894745726428   17.47990458994732
C         3.70675600338086    4.43898260877568   17.53125673997303
C         4.84583848319936    4.19376244526775   18.28418027537933
H         5.38687228168943    5.01028050556204   18.73956646361522
C         5.26959549243317    2.89014861712523   18.47616298787604
H         6.15365613918255    2.69705076106193   19.06638617999015
C         4.55958973827267    1.83483247871149   17.92877239350449
H         4.89037729911712    0.81998669341742   18.09245041068402
C         3.42003272884768    2.07949569316898   17.17900845778437
H         2.86150369206057    1.25597703588904   16.75886009637003
C         3.00183355483901    3.37925065795980   16.97307172484267
H         2.11408999751605    3.60213003809432   16.39395150551041
C         3.85551757353742    4.03304445602142   14.27385742396112
C         5.21633617041751    4.10903629376780   14.55497592346646
H         5.66567501684178    5.07363872423251   14.75327447553430
C         5.98907454495550    2.96427943051781   14.57986219523956
H         7.04366642049174    3.02948745599636   14.80502815347489
C         5.40965839335364    1.73407893548677   14.31300719348152
H         6.01407968653300    0.83937294512548   14.32820552408819
C         4.05669692924155    1.65380546817762   14.02921648448043
H         3.60514153368999    0.69515881595574   13.81951210481468
C         3.27845500106062    2.79753637433184   14.01784071948127
H         2.21972886613200    2.74003604488069   13.81888822967709
C         3.53946385173483    6.42286888507663   12.76286384415747
C         4.49267717938372    5.89916970551564   11.89837107084410
H         4.95491602933918    4.94469705665894   12.10967762185258
C         4.85335767114105    6.60225803755550   10.76204213488037
H         5.59499924771780    6.19071464231748   10.09272078201213
C         4.26556828766033    7.82398035896491   10.47949796233297
H         4.54890119749933    8.36621838361229    9.58961559769368
C         3.31087799173164    8.34955837678753   11.33589468781152
H         2.84788321964168    9.30052952345840   11.11913112708895
C         2.95047998500648    7.64844198492515   12.47115792759561
H         2.19871739814445    8.04561517963108   13.15051223848173
C        -0.74837973876782    6.20268923122089   19.38241391227583
H        -0.35645467525728    7.06927844415392   19.90607626925771
H        -1.33025207306149    5.62519411833683   20.09203597086483
H        -1.42677014521960    6.55460295060689   18.61057657585912
C         1.80696251256425    4.57365707971159   20.02270078819918
H         2.24089534434462    3.59791704864907   19.83078879905472
H         1.28487656423240    4.51936840809028   20.97165999979029
H         2.62444123432876    5.28155513084424   20.13205284642622
C        -0.23908570369223    3.58193009001056   17.84762196357232
H        -0.58007559104528    3.80912983973821   16.84070832666819
H        -1.11485022848772    3.32008363495487   18.43228343392305
H         0.40118405076469    2.70607327750246   17.80632945229513
C        -0.81588916032171    5.98743616852399   12.23284241132769
H        -1.45141694900742    6.42588486530860   12.99750142751580
H        -1.46199665221354    5.50949628429824   11.50328261344243
H        -0.28082836658924    6.79015365580149   11.72870994877125
C         1.42397239707686    4.02255406503470   11.55137788577163
H         2.48505453465506    4.05069412050894   11.77733317071396
H         1.26822096507905    4.61410617379839   10.65484062817272
H         1.16137356203926    2.99708432322288   11.31367505865746
C        -0.67498916201226    3.31101576402680   13.80786458509845
H        -0.08703973290496    2.59846621892831   14.38008329499189
H        -1.21804753040014    2.75907069096933   13.04795627148242
H        -1.40672418007199    3.75253991154220   14.47833241518263
C         0.59335973641233   10.41314800970578   12.51045285684201
C         1.69133111447942   11.18994681356184   12.84831516336477
H         2.14990701716918   11.07850952632111   13.82254342639858
C         2.19576879227836   12.11001402619736   11.94522346464868
H         3.04409411911285   12.72141548466525   12.21883747684004
C         1.61737117948821   12.24445306701503   10.69416238421306
H         2.01311333826486   12.96132930410069    9.98931492878798
C         0.53023521300593   11.45674340974098   10.34458227628042
H         0.08141583966271   11.55922228718541    9.36688348907605
C         0.02297741205040   10.54248841686690   11.24706662814941
H        -0.82804406824960    9.92521570009369   10.98919341108980
C        -1.71459150974255    9.99838651051395   13.92051094687256
C        -2.86200446089018    9.23151400928058   14.09673500600832
H        -2.80675603328769    8.15411994319930   14.01398623697476
C        -4.06459224459438    9.84301843809175   14.40660412241509
H        -4.95066178142608    9.24145560087696   14.54634070181205
C        -4.12768607704939   11.21948067332112   14.54371951645842
H        -5.06528329637063   11.69673977078503   14.78998229338480
C        -2.98782210754600   11.98663100975691   14.36338235294239
H        -3.03673491157534   13.06112280643843   14.46708812715306
C        -1.78465765359205   11.38219915291756   14.04818295135640
H        -0.89976484692347   11.98439264118722   13.89331168959813
C        -0.06010193301781    9.98211193799857   17.54441002201502
C        -1.32794661770029    9.41243898353372   17.39122949660146
H        -1.74054597379085    9.27451201930594   16.39705763981735
C        -2.10374365992759    9.10376657694919   18.49426765435945
H        -3.09001630345330    8.68714424001834   18.35221151587679
C        -1.62248637654263    9.34936419988737   19.77007503141529
H        -2.23152443482203    9.12421040363931   20.63323221790318
C        -0.35559842986051    9.88532515142260   19.93373648847171
H         0.02761462331937   10.06837005155042   20.92865651405857
C         0.41801117517074   10.20865250167061   18.83299211285744
H         1.39519571073737   10.64666634414716   18.97785458164231
C         2.43609497664779   10.83388143497808   16.53985768419305
C         2.75160863325135   11.88705386543824   17.39598115540830
H         1.96024373683452   12.53563333236650   17.74975388185819
C         4.06075571038922   12.11422417312077   17.77548531497537
H         4.29486708482947   12.92529654287209   18.45075615767182
C         5.07609985534985   11.31495201774049   17.27530624282201
H         6.10095176046631   11.49763051018452   17.56463201377628
C         4.77596862987830   10.30051284583039   16.38300944842832
H         5.57003397918782    9.69764730197318   15.96396418733122
C         3.46434420106279   10.06351693679075   16.01380894284986
H         3.23192052607833    9.28678513105639   15.29647725182702

