147
CSD_code = SAQBUI | q = 0 | S = 0 | Stoichiometry = C67H69LaN4P4Si2 | MND = 5
La        1.92990939512926   19.77614605579816   15.93051065227635
Si        3.19261333622523   22.94759329697173   17.81600185580263
Si        3.89568416780750   16.89863392185377   14.36850903822441
P         3.79729884769727   22.24380221046055   15.02893209496253
P         3.79253689765285   19.66067430326532   13.34779521832809
P         0.12570051335359   19.59436697233481   13.40525680265285
P        -1.72334017541824   20.02286762000757   15.66531486754141
N         3.17456900496011   21.85022382609647   16.45594647077688
N         3.42391477334604   18.58309438491870   14.46270761822355
N        -0.16967557190178   19.84823203907612   15.03799279297750
N         2.34684528725107   18.22343495769780   17.69830587683776
C         3.07341007930305   21.22895056061344   13.77128250714387
H         3.07232286569154   21.83171450502339   12.85322190366694
C         3.08351446212656   19.37793248451697   11.68085024672256
C         2.34778505931982   18.22437338826070   11.44153327236375
H         2.23822905314212   17.50069800518752   12.23333568663198
C         1.75675749490123   18.00762617500803   10.20987235881293
H         1.18523516211699   17.10707632175509   10.04097735514626
C         1.88719876995704   18.94987552148071    9.20303618097566
H         1.42247062506940   18.78671481040801    8.24186651092105
C         2.60759391059670   20.10924912847177    9.43497275779313
H         2.70360769600972   20.85239123264770    8.65617004681316
C         3.19963129416077   20.32528051558122   10.66713764560122
H         3.74668696928986   21.24401011953533   10.83638383451619
C         5.60491260272520   19.64319670721442   13.06974195887691
C         6.23226742366090   19.87083131904600   11.85242837005093
H         5.65032320324159   20.06476539268964   10.96414999031148
C         7.61256289328911   19.81663969086872   11.76491261153019
H         8.09400623962470   19.98713504845240   10.81274171719486
C         8.37526444641903   19.53295393443192   12.88443568286243
H         9.45130084583521   19.48375692058125   12.80771524691843
C         7.75367687665120   19.30071791230021   14.10082369445205
H         8.34310505125866   19.06626728166751   14.97503941408356
C         6.37753667860741   19.36110692998319   14.19073077905717
H         5.87447627848192   19.16458771879241   15.12736036111317
C         3.37989196139262   23.94072908443225   14.51325781034187
C         2.14972014214342   24.16401123473853   13.90521156901100
H         1.49798958652759   23.32822723128966   13.69174616603419
C         1.76323002826259   25.44639575010002   13.55961933183610
H         0.80996463281411   25.60648772892544   13.07632284449723
C         2.59716187231673   26.51870094376405   13.83203569570752
H         2.29565040480987   27.52121723938057   13.56663049983706
C         3.82026228723738   26.30317230635660   14.44670621938025
H         4.47207439748496   27.13745724312315   14.66152386647614
C         4.21075063221737   25.02046712626957   14.78730154442494
H         5.16894059961217   24.85457510533886   15.25954001618497
C         5.62115014201187   22.26557946597278   15.05342714142992
C         6.31505186581591   21.79104266080649   16.15603694895062
H         5.75250933746233   21.42245313593583   17.00051286859485
C         7.69812080894513   21.81573885355941   16.16552313958894
H         8.23899293512125   21.46084205097793   17.03087649854897
C         8.38974932823106   22.29654516804219   15.06646067761317
H         9.46937878334266   22.31975741680240   15.07427505974129
C         7.69866527541537   22.74573746585111   13.95121739833801
H         8.23997091504860   23.11127456600243   13.09088737184514
C         6.31803997962892   22.72888841565518   13.94188129744986
H         5.76936059053174   23.08512915586968   13.07933326059017
C         5.03843744185716   16.50307818844950   12.88254607045176
H         4.76136112910682   17.07298041297407   12.00016533317469
H         4.98676755014893   15.44958910662506   12.62706322169901
H         6.07520859898283   16.73407593779818   13.10625868834025
C         2.29618041404836   15.85301569089638   14.21843831783807
H         2.17744996781148   15.22660362083833   15.09543677511656
H         2.32174145551512   15.19794245481808   13.35260034008377
H         1.40506120868700   16.47282792255349   14.14346625003146
C         4.83139974516068   16.39059878859948   15.95255522733105
H         5.81418642430568   16.84549142795154   16.02924792551702
H         4.96936149714826   15.31470404840470   15.95473243421538
H         4.26881676575834   16.64837508261223   16.84260455517224
C         1.96346276995294   24.39373975159608   17.57013481030749
H         2.28356076946715   25.08384755643393   16.79622866916573
H         1.86500021506807   24.95823293255341   18.49193763098157
H         0.97534811076354   24.03203286108314   17.30085285847494
C         4.87464288135475   23.73049315979809   18.29095351630122
H         5.51902017003329   23.02275600700252   18.80281577164327
H         4.70724006322642   24.56292237896529   18.96738197793410
H         5.41725461989382   24.10929133607485   17.43129325420777
C         2.58198732428011   21.92968743177574   19.30807655996951
H         1.73552487400358   22.41948274511754   19.77725078019204
H         3.35706762198264   21.83152777627387   20.06003211257810
H         2.28130781627442   20.92593473574335   19.02003558491154
C        -1.09661016693893   18.34449526461531   12.84099345352969
C        -1.64773504410555   17.41604964997228   13.71288938392879
H        -1.41047911965576   17.46956948453914   14.76769518328691
C        -2.50207511212864   16.43494445957264   13.24267695747139
H        -2.93784977925609   15.72341070043464   13.92977130185019
C        -2.79714914263587   16.36160941156770   11.89191264499462
H        -3.46390552262446   15.59541675500502   11.52357994693364
C        -2.23434092749119   17.27328448656808   11.01210336571283
H        -2.46215723520752   17.21606708895948    9.95684342176903
C        -1.38572422647399   18.25685257736218   11.48202644988724
H        -0.94782516637474   18.97439345308571   10.80042990957499
C        -0.70107836841270   21.03096909184536   12.57393839222615
C        -2.05258157112157   21.29773746916292   12.76067140170224
H        -2.66389348861981   20.59527717355568   13.31353116236216
C        -2.61590785968747   22.44839464293153   12.24341641552297
H        -3.66490442034273   22.65260208893810   12.40270953918910
C        -1.83881429086638   23.33947285649143   11.51972597309429
H        -2.28072357938894   24.24071605803766   11.11931721544913
C        -0.49954814672415   23.06657338885005   11.30199270737615
H         0.10698978628205   23.75085138590493   10.72423008391127
C         0.06551888233712   21.91794624578234   11.82921554347413
H         1.10795081163022   21.69229579159122   11.65215724434994
C        -1.36186327209409   19.44597248241913   17.38384529695135
C        -1.98720971651626   18.28578178365487   17.82522770644422
H        -2.69022411951632   17.78706698700035   17.17133353416299
C        -1.72154822822900   17.77438388404199   19.08243559054753
H        -2.20442574284088   16.86637270991057   19.41187130767028
C        -0.83498614463457   18.43224477205869   19.91668982125951
H        -0.63159715808005   18.04094494225116   20.90285981861482
C        -0.22268284902216   19.60289027374906   19.49705821156823
H         0.43484691357491   20.13288268033032   20.17109488675252
C        -0.47231525126670   20.10856614376002   18.22986900541932
H        -0.05294846096231   21.07055612603558   17.93401852312118
C        -1.78207327684041   21.82580064353892   16.05217442308761
C        -2.87525164199902   22.30756958719168   16.76629701200389
H        -3.59732586968916   21.60382912498715   17.15980546008729
C        -3.03359441536942   23.66430070134943   16.97120837178163
H        -3.88048277264977   24.03252167096833   17.53277594157291
C        -2.11373582211721   24.55637540690687   16.44134392970465
H        -2.24580032047917   25.61895903778386   16.58607735058507
C        -1.02709758008072   24.08534626057650   15.72383176882628
H        -0.31286055087074   24.78085146473958   15.30609665040284
C        -0.85875981145229   22.72444537109736   15.53703458043338
H        -0.00616690387307   22.34546089292255   14.97993737177784
C         1.68435260650005   17.02309539338869   17.79719055282238
C         0.60997482375716   16.76751231475142   16.92672825325737
H         0.34009013521100   17.54178925182099   16.20969145881895
C        -0.07527347255522   15.57256934940678   16.94974021880257
H        -0.89841295568203   15.41529729826961   16.26665686376516
C         0.28946503939630   14.56853693880888   17.83283550740060
H        -0.25054984933567   13.63422581945611   17.85757736845279
C         1.37926025854245   14.77617594497107   18.66294594713093
H         1.70275730714644   13.98965341920243   19.33091073794928
C         2.07076106773395   15.96863606433821   18.64695580039137
H         2.93957640817005   16.08141760689340   19.27900635597619
C         3.26512049178308   18.57966381427635   18.67842761061682
C         3.03280483271354   18.41730095024233   20.05498598354701
H         2.10034521997240   17.98018189046507   20.38113376058701
C         3.96165224311734   18.83909532393695   20.98372202374966
H         3.75461536743850   18.71202201227628   22.03725461870535
C         5.15224828553000   19.42507015940516   20.58238114366434
H         5.87788872558218   19.74511807316863   21.31525901545316
C         5.39830939523245   19.59713381524373   19.22905192042430
H         6.33033587325966   20.04353165038053   18.90819052432712
C         4.47282698035431   19.18732215549063   18.29123899895944
H         4.67084950018978   19.30691636466663   17.22797176055769

