53
CSD_code = SAQCES | q = 0 | S = 0 | Stoichiometry = C22H24N2O2Se2Zn | MND = 4
Zn       15.85136768917332    6.16037531024608    6.78184017044628
Se       16.32548258279092    5.09915620852402    4.67478833233934
Se       14.52877807284291    5.20281878019662    8.54906679608525
O        19.97802404364780    7.06229227065140    6.78395281786212
O        13.56923719159328    9.63868157904652    7.51785315033118
N        17.84759386949708    6.56776776098802    7.18748237025642
N        14.77505394734468    7.93729007556468    6.74494509132969
C        17.67804285575644    6.27639439911345    4.06442244814597
C        17.75024599610160    6.43453591725653    2.67544303686435
C        18.68554708960775    7.25061590490491    2.08375862648618
C        19.60048107363473    7.93763611641929    2.87381692486661
C        19.56892709253831    7.77326710881232    4.23851254895558
C        18.61875022035374    6.95078360064288    4.86368937369728
C        18.74532303826011    6.83605661086858    6.30689731737242
C        19.93805238976898    6.92069657080940    8.19400321413559
C        18.46945471585328    6.54306060955819    8.51133995891758
C        13.64622700983093    7.90223856985159    4.57113754055747
C        15.77506022541225    9.19959578306897    4.89685855094180
C        14.31931103730538    6.75213845014327    9.61842103725841
C        14.21098175357136    6.51761035231699   10.99423611150953
C        14.04600265971465    7.54225503532560   11.89627813775087
C        13.97240915685501    8.85488411363647   11.44360767947443
C        14.04508313413962    9.10686044517590   10.09396586443818
C        14.21983135499006    8.07695613063050    9.15634600146730
C        14.22374944881217    8.49438079534370    7.76432188186817
C        13.66644509496258    9.91240501200585    6.13028215337031
C        14.47861597289546    8.72756545039500    5.55016138902618
C        18.36700250464757    5.14171072184045    9.10994505179579
C        17.80716451637439    7.57266727420404    9.42325282979896
H        17.03289534926316    5.89330766818777    2.07459698682136
H        18.70652691585543    7.35684431898260    1.00943303154982
H        20.33544946714550    8.58665121222654    2.42320166967593
H        20.28309335853163    8.29108797302998    4.86036803545260
H        20.23788152512687    7.86954485598601    8.64906847701045
H        20.64669439132550    6.14144300492105    8.48570116362291
H        12.74325179163645    7.53627121856792    5.05580697614551
H        14.21582684115168    7.04675704133633    4.21498126746821
H        13.36968966792415    8.51525763320149    3.71673289545737
H        16.40056866480535    9.72207036131818    5.61884970275545
H        15.54807871219252    9.87135086689991    4.07263503992831
H        16.33082961354996    8.35167919051815    4.50639261304188
H        14.26941499508461    5.49197409214664   11.33068882184903
H        13.97541547953222    7.32585150700397   12.95177874366855
H        13.84964683542659    9.66925163069021   12.14088026102524
H        13.97531091807796   10.12074454147315    9.73060906402362
H        14.17033434376832   10.87465946493357    5.99837007829777
H        12.65681992329140    9.97473941851870    5.71636120328831
H        17.32573945934202    4.87449313516571    9.27585712898599
H        18.88959188374943    5.11034486435541   10.06292607547138
H        18.80690159122253    4.40866633732388    8.43663610419089
H        17.81409486555330    8.55745905246526    8.95888948269784
H        18.34069328382072    7.62298192737147   10.36926659457987
H        16.77710438430818    7.29137172585821    9.62384217563954

