48
CSD_code = SAQFOF | q = 0 | S = 0 | Stoichiometry = C20H17N8ReS2 | MND = 6
Re        1.50330796094013    1.12412685254840    2.99125743781623
S         0.82432720842326   -0.79585978421494    1.40328639029562
S         2.67075917253243    2.09850203285649    4.96337547934031
N         1.57571418727490    2.70637543395238    1.84438640031266
N         2.58840472577723    2.97728097540307    1.10251560472566
N         3.38213963533566    1.05403287157210    2.11255977089090
N        -0.13772075278977    1.56676689611505    3.49101817924450
N        -1.21218688316611    2.01990635072312    3.74236482619465
N        -1.09694236864618    3.90743443052455    2.41547598855263
N         1.69860259906926   -0.89367445729568    3.81224040585651
N         1.63983907408314    3.57462117907350    6.85335594936442
C         3.59695220745338    2.08509341338104    1.24940092825127
C         4.79628927070578    2.21998690079923    0.53490128432874
C         5.78594621212075    1.28775204658943    0.72026590095945
C         5.56537445441332    0.23916285176841    1.61621440379574
C         4.36152202113582    0.16884151425397    2.28136938585968
C        -1.79858924231854    3.16659151619267    3.28293886450453
C        -1.64484598048523    5.02659516578768    1.97989396246599
C        -2.89884717863010    5.47116581369725    2.36900700722789
C        -3.62284593564860    4.69701961920601    3.26834743899534
C        -3.07123818627971    3.52299234372317    3.73878524154019
C         1.34546302869433   -1.68860448887904    2.77830160589485
C         1.43206792551670   -3.08180051367639    2.86536791126997
C         1.89207534552788   -3.63747328745747    4.03647961857807
C         2.26537483094168   -2.80570335582704    5.09468523148873
C         2.15342177192203   -1.44036221015012    4.93643728128695
C         1.44836291094913    2.45710891150670    6.16914136416319
C         0.37981629250036    1.59275719880586    6.42148577164234
C        -0.53562932179722    1.95184634189656    7.38941530775447
C        -0.34866880036143    3.13577875415342    8.09159030610837
C         0.76613195482560    3.89958947979799    7.78733111901587
H         0.81542639072034    3.39682627857827    1.72020236852366
H         4.89855696269367    3.05674005542331   -0.13506730835386
H         6.72182848742693    1.36080953233894    0.18785713334778
H         6.32072767457727   -0.50911357895789    1.79336538707615
H         4.17409410861629   -0.63355389234865    2.98505881017862
H        -1.04321956182725    5.59397029757386    1.28164610758724
H        -3.29809041075534    6.39447993156311    1.98144062766807
H        -4.60340109234904    5.01023272646710    3.59573763473566
H        -3.58608928276769    2.88546860416844    4.43831689822318
H         1.13915117949455   -3.68019572689870    2.01811045270742
H         1.96999668614044   -4.70980332022602    4.13722977654842
H         2.63545524499169   -3.21578369312916    6.01981119097402
H         2.43918425234633   -0.74869148238113    5.71929853275112
H         0.27613656536202    0.67379367497923    5.86222050367430
H         0.97508514186541    4.82379352816657    8.31098551070068
H        -1.04341299598815    3.44916674808390    8.85493423227129
H        -1.38110749057309    1.31270951977175    7.60145577366081

