31
CSD_code = SAQFEV | q = 0 | S = 0 | Stoichiometry = C10H11Cl3MoN6 | MND = 6
Mo        4.08420562183813    1.27465949041696    6.84027030284393
Cl        6.21526760140132    0.39927198563429    7.63153349020630
Cl        1.77356183070196    1.51881496614053    6.20339798249975
Cl        4.42502831571300    0.16067893450668    4.83175433942294
N         3.61787634999909    1.82316188504378    8.62390842778312
N         3.03614512481733    0.89682939670350    9.46274622161838
N         3.35377595201051   -0.53606770926209    7.72789694409353
N         4.73061014747099    2.79736905199262    6.30205999995980
N         5.23544249156051    3.88658088305300    5.94191260513484
N         6.75863593789426    5.25267186405174    4.91814545915965
C         2.84755298037309   -0.34067249807448    8.95821037205770
C         2.20982334255880   -1.36113507974998    9.68424337929424
C         2.11494718113490   -2.60637109180479    9.11422684173912
C         2.65654252997529   -2.81317646236094    7.84411453213407
C         3.25895208112208   -1.75740830556661    7.19741821473152
C         6.36067963472293    3.98484240933880    5.27336330513838
C         7.89597778528155    5.49423867581572    4.22699982010709
C         8.71084920823399    4.47615460523709    3.85148753334203
C         8.35111801439482    3.14495200245379    4.19542087238736
C         7.20922828596539    2.90245197572316    4.88653181049277
H         3.73815774203968    2.69941887559244    9.12831666470697
H         2.56101841885364    1.19287205587422   10.30624064490828
H         1.81088472875815   -1.15028210064698   10.66382204007737
H         1.62916873757212   -3.41346043052447    9.64086091933804
H         2.60274034779744   -3.77837461861443    7.36941653219111
H         3.68716294725301   -1.87498037237635    6.20895856444300
H         6.14547249147577    6.00859606466540    5.19201322768633
H         8.10899561723410    6.52737683491932    3.99866617483436
H         9.61520195938368    4.67239337770868    3.30201203491691
H         8.99580667641989    2.33162016130529    3.90172943414649
H         6.90186991604375    1.90447317280247    5.17112130860355

