49
CSD_code = SAQFOI | q = 0 | S = 0 | Stoichiometry = C18H16CdN6O8 | MND = 8
Cd        5.38641227392080   12.44807222877020    3.50258796780507
O         6.78186862351534   12.84055654778428    1.84621458508383
O         4.53113508753374   14.32700849409370    3.52925758340637
O         4.19986636064105   15.30623261852557    5.38745229727536
O         5.34436171870933   13.51851550912110    5.32295140674966
O         4.11495562740807   11.71243979031765    1.91705872690737
O         3.61106855553563   11.50674491856867    3.97438068139025
O         2.98465143225727   10.04718921258240    2.57457044794415
O         7.60546488720862   12.10812795219430    4.61335257910405
N         6.21959223500536   10.40282911194244    2.78158331608168
N         6.80045276434393   10.58429315327144    1.59510481790479
N         4.67089034520244   14.40328219087900    4.75793732817604
N         3.55700583559962   11.08025882626004    2.81351037398663
N         5.68073255877879   10.17885053789978    5.42731091679892
C         5.23203519762384    9.27528688004334    4.55202070845137
C         5.93821557016362    9.23839637682678    3.25323963295229
C         7.03031969025365   11.86051540423898    1.15805648195335
C         7.59654475153995   11.97335867088269   -0.20326770510535
C         8.34018628492746   10.96098975524780   -0.80883108173775
H         8.56096085646590   10.04588380709536   -0.27961175228504
C         8.83688635542413   11.14268626183794   -2.08657784882238
H         9.41877633487104   10.36094521911781   -2.55175427579690
C         8.59433863665051   12.32337280158631   -2.77128899750297
H         8.98143677129372   12.45468823518319   -3.77062676225483
C         7.86239280320437   13.33552217083813   -2.17110781480645
H         7.67745117860674   14.25694925114553   -2.70166806182550
C         7.37064291005301   13.16568282915132   -0.89110305996762
H         6.79614876353924   13.93814400852975   -0.40358889971401
C         6.24215423857087    7.95688480632017    2.60226132626010
C         6.17937336863832    6.74828611043187    3.30318245945946
H         5.91994093597222    6.73881923869974    4.34929919524842
C         6.47427065991461    5.57106945520761    2.63870706277106
H         6.42803766468526    4.62647780446251    3.15998057368032
C         6.83145140976011    5.62039576704613    1.29958251322571
H         7.05893735837990    4.72404392225272    0.74568088628932
C         6.90593798186095    6.86516955676235    0.69412146394793
H         7.20278299642234    6.97239122108297   -0.34096928743468
N         6.63001932303289    7.99198067960886    1.32107516126476
C         4.10115647590205    8.49818246114253    4.79124974239537
H         3.73298603676233    7.81938316249923    4.03890051649235
C         3.41422533173706    8.68595065988327    5.97936728436742
H         2.51744212380633    8.11986258550240    6.18101963901503
C         3.87940176469133    9.62483590639046    6.88500890670505
H         3.36224164547688    9.80884993801786    7.81279779261489
C         5.01902361716700   10.34569280210828    6.55996651312596
H         5.41863383657231   11.09560876174926    7.22904167523083
H         6.91974906061479    9.74019789578123    1.01427731496154
H         7.60584308759154   12.87545117857582    5.19674026759724
H         7.20279667217515   11.39144332258794    5.13434540056552

