43
CSD_code = SAQGAS | q = 0 | S = 0 | Stoichiometry = C17H13MoN9S3 | MND = 7
Mo        4.14824557197956   11.35794559534705    1.34856825484804
S         4.62244031676283   12.98703534166193   -0.66569159008026
S         5.66814143058623   10.51531343409394    3.26040500310638
S         3.55368147686861    8.84597642315701    1.39628805143642
N         2.81319841340677   12.00027711816581    2.30389727877389
N         1.90659774088942   12.57624339370554    2.84354191622715
N         2.16064584151620   14.31546360187190    1.33802659895842
N         5.71243274268807   10.80949694577825    0.07478717095182
N         6.67756631307883   11.78506444100260   -1.86740081854173
N         5.38562594798258   12.80922395562796    2.24603321117086
N         7.02790063921234   12.71185147033527    3.96030559554147
N         2.72213527607636   10.72516655774305   -0.06930467182253
N         1.77929466036362    8.60741101305504   -0.59264317857305
C         1.47345084301433   13.79668287296646    2.35717792092539
C         0.36967984558738   14.42504182485208    2.93796399467992
C        -0.02211620993388   15.64352802765214    2.41898108560384
C         0.68790696353843   16.18697268417190    1.35501146740203
C         1.77127274868703   15.47851014637953    0.85513224662422
C         5.79859887717384   11.77089805263585   -0.88022290907649
C         7.53430721640970   10.78204071073651   -1.92560430239510
C         7.53060630365314    9.74403509096200   -0.99880096553078
C         6.57921103227594    9.80381534783815    0.00677570216609
C         6.11007125916894   12.15254985147212    3.18985555956434
C         5.55207348898514   14.12485593586608    2.14744389061725
C         6.47424496501808   14.78537716663078    2.94291425109097
C         7.21606657143815   14.01068402302602    3.83234347455127
C         2.57830367462311    9.38608349827039    0.11698603065685
C         1.03495963565817    9.18368162933573   -1.51597250603496
C         1.05840101609709   10.55916472492012   -1.73785461369999
C         1.94240410478768   11.30640123227994   -0.97664137358201
H        -0.14386108033024   13.95493019947186    3.76021248842041
H        -0.87046180301241   16.16706857666579    2.83539812071409
H         0.40864427781744   17.13626840675860    0.92643064456325
H         2.35878485514092   15.85574645853698    0.02749646534795
H         8.24125181758476   10.81891318952852   -2.74330998199718
H         8.23154703364623    8.92938893786170   -1.05376550661624
H         6.49809274821091    9.04293096718339    0.77560699999068
H         4.93413753642810   14.63986514216455    1.42037378283553
H         6.61204068827433   15.84998764052501    2.86573796185327
H         7.97761564944085   14.43894053315379    4.46958005848306
H         0.39791912828061    8.52111973383443   -2.08561045758228
H         0.42710178108730   11.02659142510352   -2.47356433916103
H         2.04063865969843   12.38085667782967   -1.08798801257978

