35
CSD_code = SAQGEY | q = 0 | S = 0 | Stoichiometry = C16H14FeN2O2 | MND = 4
Fe        1.00972479040513    7.92003781818568    0.31521111663727
N         2.40395856593103    6.76343112060168    1.56652783224903
N         1.51467115419878    6.40227363472686   -0.96337618983795
O         0.28968286191954    8.36553033003588    1.85497785321371
O         1.08914981096817    8.98281734583687   -1.19610407737074
C         0.63577792134874    8.43969703540208    3.10796292967513
C         1.63638615573223    7.58959724287568    3.67362306756121
C         1.84991178167802    7.61477764155758    5.06048025487089
H         2.59180848651644    6.94781470236963    5.47827581135522
C         1.16467932217085    8.48008397363623    5.87493464632685
H         1.35544030537862    8.49945037021735    6.93700477660381
C         0.21530814271982    9.34279089998729    5.32004637110525
H        -0.31907852239139   10.03048320978579    5.95910231159848
C        -0.05066031636952    9.31668417464355    3.97513207333407
H        -0.79526389006080    9.96667829385505    3.53982909993366
C         2.36450459063012    6.68031043700752    2.85031778886736
H         2.89395995425726    5.86962873937351    3.36586440845814
C         1.04513619238874    8.81383425719879   -2.47300476767744
C         1.30680272901458    7.54010180004574   -3.07165198838509
C         1.30937255083786    7.42251654681786   -4.47118927617772
H         1.51781419048347    6.45442822043357   -4.90648619501017
C         1.03839096478084    8.49758225773440   -5.27746086148434
H         1.03066761618498    8.38985979474406   -6.35125032593436
C         0.77174093131893    9.74304838359542   -4.69835124747785
H         0.55821780539524   10.58975692151610   -5.33479256744538
C         0.78112006239376    9.90220912281088   -3.33784257294341
H         0.58305790853218   10.86215528662380   -2.88520591241837
C         1.62241643458775    6.42275284640382   -2.25329027494903
H         2.00045062517511    5.53571354265416   -2.77241543096925
C         3.03138098532637    5.71683243721863    0.79992111970928
H         3.35096550684262    4.87011986328521    1.42531442622356
H         3.90467735552811    6.13618212090281    0.28891920156190
C         2.01632953244351    5.24366607078299   -0.25129085918804
H         2.48608111144730    4.52022186712553   -0.93207992584725
H         1.17981638228446    4.75723169000747    0.26254738383128

