48
CSD_code = SAQGOI | q = 0 | S = 0 | Stoichiometry = C17H22BrN4O3Re | MND = 6
Re        0.76811884432008    6.78447903345450    3.15296806300341
Br        2.49424779585055    8.63444312970503    2.39288332559873
O         2.76528375580827    4.45724345679350    2.72330271724866
O        -1.16263329194654    4.50196365289290    3.92792819910917
O         2.02418631605653    6.65159168293987    5.98042652525344
N        -0.36312627087111    9.52710635741261    4.49868496579579
N        -1.88911149891920    8.50759285729624    3.39063366676002
N        -1.14783220511089    7.39255112027714    0.47625206012539
N         0.81378036886074    6.72390451624836   -0.08236204126362
C         2.03311475834523    5.34296369654072    2.77320985050383
C        -0.48396233333583    5.38894804128332    3.62617184949655
C         1.53513336904747    6.73575425128246    4.94460069385570
C        -0.58177640465420    8.43526974772661    3.73507075152789
C        -1.50668608164702   10.26862144654464    4.61427359352547
C        -2.46922079192360    9.63163447371209    3.91391610343896
C        -2.59341262672444    7.57681992361591    2.55221446593099
C        -2.37583475808967    7.87953606234025    1.07268362720652
C         0.03920670166292    6.98128969563254    0.99970229928762
C         0.13064242233441    6.95667390623708   -1.24115222784476
C        -1.09938608848976    7.38044412600213   -0.89615551538817
C         0.86316956544346    9.90234824675835    5.18605040805770
C         2.18806547216474    6.24683517828732   -0.13481302476933
C         0.63942584758980    9.86584921202199    6.69535692110127
C         1.34615178315828   11.26641644077873    4.70440607994628
C         2.21284586890426    4.81347997000509   -0.65829640803429
C         3.05248006756962    7.18619661342504   -0.97067486307935
H        -1.55368521092304   11.17705079404652    5.17647625833223
H        -3.49937726713086    9.87563873613730    3.75399422860729
H        -3.66050909136213    7.66597370425108    2.77080060856162
H        -2.27268862156725    6.55677945020141    2.77802592334594
H        -3.19932420738645    7.43012093986182    0.50732113967181
H        -2.42024478164802    8.96831013741063    0.92730565359243
H         0.55952471521477    6.80747286127954   -2.20873997974968
H        -1.93331831774378    7.67504964568696   -1.49911876821998
H         1.62220471492503    9.16019260605238    4.92986419834745
H         2.58330965699590    6.25636393286248    0.88217572150558
H         0.26143083046720    8.89157846000021    6.99908739971574
H        -0.06776100076735   10.63017640209140    7.01083909223421
H         1.58340894102526   10.03967185839018    7.20377785523701
H         1.51695805490132   11.24207601042470    3.63087458557361
H         2.28913189000222   11.50346214386787    5.18788966787866
H         0.62940173025340   12.05078588458699    4.93742699644864
H         1.57433414328121    4.17688576629582   -0.04868059861228
H         3.22680660427507    4.42691192623459   -0.61040840868475
H         1.87204167935153    4.76499801156392   -1.69069812483484
H         2.97574695240711    8.20102917467707   -0.58746788641798
H         2.77090556694096    7.17524948727083   -2.02090829510871
H         4.09023243308572    6.87516522759168   -0.89161935381863

