31
CSD_code = SAQJEB | q = 1 | S = 0 | Stoichiometry = C10H14AgI2N4(1+) | MND = 2
Ag        2.83653863627124    4.67548639766650    0.00003690150580
C         5.00798466404561    6.97637842276423   -1.00468281811365
H         4.03486923565049    6.57685198018972   -1.32132583958895
H         5.72963542707034    6.84157252300722   -1.80904594958844
H         4.91364937409891    8.04526852692076   -0.81897746672817
C         5.46999341534291    6.28238095604798    0.21919140047995
C         6.65041820049590    6.49401363216265    0.94131322541370
C         6.63006136879532    5.60197360567657    2.00368266524870
C         7.61322594111974    5.38218805166566    3.08303060441980
H         7.27163846322260    4.61735228303851    3.77481491564860
H         7.78061740072413    6.30908883264816    3.63032753906334
H         8.57052690818521    5.07805610793433    2.66089405208558
N         4.76509776183931    5.31442553264684    0.80659759531056
N         5.48004248787059    4.91634206447637    1.88070758479330
H         5.14693792108812    4.18291923661955    2.48873734862803
I         8.15281312962549    7.88093253072766    0.50902598690199
C         0.66520434472700    2.37444040272228    1.00466737712548
H         1.63831200282862    2.77398193793747    1.32131507285020
H        -0.05644727093399    2.50921616024795    1.80903456393317
H         0.75956247511911    1.30555550624936    0.81894426663097
C         0.20317586283093    3.06844529678202   -0.21919515521169
C        -0.97724660206249    2.85679093518749   -0.94131691879628
C        -0.95690836600131    3.74884178416881   -2.00367937036600
C        -1.94007826712424    3.96861728162513   -3.08302446503789
H        -1.59849730031933    4.73345020259780   -3.77481532692290
H        -2.10747309673474    3.04171122262162   -3.63031120041112
H        -2.89737775708848    4.27275021203100   -2.66088536775864
N         0.90804635384582    4.03642716581975   -0.80658894884996
N         0.19309175725637    4.43450330865096   -1.88069498295071
H         0.52617974667836    5.16793524378370   -2.48872301680385
I        -2.47959421846748    1.46980265538216   -0.50905427291103

