63
CSD_code = SAQJAY | q = 0 | S = 0 | Stoichiometry = C22H36Cl2N2Zn | MND = 4
Zn        4.05010817733084    4.77890929393991   11.75992397463743
Cl        5.18679610769235    2.87343591993483   11.88114165940926
Cl        4.64303179214833    6.80019221464586   11.05177036359557
N         2.12434985396065    4.65664235643314   10.90629282173570
N         3.04416841922806    4.70740390755725   13.61308880253636
C         1.23533601435441    4.95657932922935   12.00379307116012
H         0.20791985474237    4.64134818604214   11.78664464941427
H         1.24143038761376    6.03963140472126   12.17144420301790
C         1.71563309264412    4.25631188451030   13.27217834372274
H         1.00361526252186    4.45271921559884   14.08244055603707
H         1.75056492146058    3.17609849729849   13.09049795006076
C         3.47849159279674    4.56207819970308   14.79509156606630
C         2.74332227960256    3.95585256764442   15.96210691820367
H         2.41631844353394    2.93942186883742   15.73358968445557
H         1.85506427071994    4.53723617351536   16.21733732829967
C         3.80588401858532    4.00462121093011   17.06260058436841
H         3.40409829569488    3.90919349294706   18.07043978976116
C         4.84589228986341    2.93878968991257   16.69495106493278
H         5.55088726812492    2.77812406426404   17.50926700548324
H         4.37252549463744    1.98111055762906   16.47974779691064
C         5.52673338731017    3.54095477560128   15.45349212996243
H         5.38993735194422    2.93561834142188   14.55818950002431
H         6.59770498272102    3.67527008290142   15.59508374931682
C         4.85064059615349    4.92687913967327   15.28470488644927
C         4.53863827038947    5.32684437256306   16.75301767570636
C         5.76496240966619    5.56682701792130   17.62872865701796
H         6.25554671769239    6.49335775528834   17.33993923287488
H         6.49239390168390    4.76627401525190   17.56343216477089
H         5.45328699556012    5.66133803868761   18.66735908271523
C         3.65038228536122    6.56867145500253   16.85167915477351
H         2.85701059298522    6.57189547077417   16.10957478158906
H         4.24871421285252    7.46275299547155   16.69339656745523
H         3.20344889684469    6.63262603884575   17.84226473953630
C         5.64444442387370    5.89912091698304   14.44276649829685
H         5.92108981120513    5.43831206793858   13.49486250139842
H         6.56161866242393    6.17583810970104   14.95711830928069
H         5.07059045485396    6.79916710092788   14.23567652167366
C         1.72915237815052    4.81043150516593    9.71164454583015
C         0.37117994920541    5.28189938790997    9.26072849590071
H         0.13446737982013    6.25885713724460    9.68714052558602
H        -0.41328427820225    4.58897246555697    9.57157695134973
C         0.54163041631922    5.32283276653307    7.74029580518881
H        -0.39800443386311    5.33392617246916    7.18962513160397
C         1.45750991712785    6.51820421535537    7.44859573623237
H         1.10540676550069    7.41879941532216    7.95108140360081
H         1.49645667291380    6.73428978573207    6.38195159968187
C         2.81765736054320    6.04593596924102    7.99110532262277
H         3.58750400546591    6.03594979785121    7.22149295173302
H         3.18498782129557    6.66164975714536    8.81125099093599
C         2.55097110635859    4.59578179895749    8.47307123230576
C         1.45940281352521    4.10996068609064    7.48019034111755
C         1.91733733442615    3.98873337710243    6.02969104091885
H         1.05184223887362    3.82050394623467    5.39137948888667
H         2.58673371049035    3.13901185254157    5.91828236007224
H         2.43413592150617    4.87302349880153    5.67578699416369
C         0.84675710606369    2.76767731888285    7.88492630975964
H         0.67662046059681    2.69467353051742    8.95539191579707
H         1.51648199831488    1.95799372758985    7.60507521295478
H        -0.09976437756077    2.61638420272812    7.36887450688842
C         3.79940824399655    3.75572287812139    8.61455265161405
H         4.53928986377545    4.27894621229367    9.21972714471398
H         4.23940018071792    3.57346275153296    7.63704556906849
H         3.57913765388625    2.80102811284855    9.08608148483526

