36
CSD_code = SAQMED | q = 0 | S = 0 | Stoichiometry = C12H16N3O3ReS | MND = 6
C         3.33109508172814    2.33865498545825    5.33919907578146
C         0.68212544914260    1.94180086082169    4.36249222778266
H        -0.04984717128282    1.67883567098234    5.12454060408561
C         0.95327622148077    3.33822807810234    4.12590508935864
H         0.41699326978975    4.07711751471917    4.71926549398650
C         2.02244933112210    5.07582329492109    2.97256859600356
H         1.25252605047011    5.66652455138836    3.49459170851847
C         1.94117701913122    5.36533331646564    1.47516948738009
H         2.10827926781451    6.42418800332060    1.29801567563115
H         0.96050895069088    5.09671742307181    1.08773808924550
H         2.69510560532133    4.79380959439262    0.93684172127758
C         3.39139482142387    5.45790048503825    3.54106985639444
H         3.42009422038886    5.27758117907925    4.61405221784572
H         3.58254372216803    6.51175752724013    3.35810862805609
H         4.17648401914414    4.86978041088034    3.07050235653859
C         0.97115912867114   -0.33517907286709    3.88933268043973
H         0.06660517793037   -0.40571566461531    4.51465603915314
C         0.71206921598582   -1.03943915862429    2.55914760958656
H        -0.11497045784676   -0.56743575432829    2.03271523885547
H         0.46154740275763   -2.08111095817141    2.73982317357720
H         1.59667491647353   -0.99363658776963    1.92668177525999
C         2.13310999598085   -0.98307399486023    4.64660685119832
H         3.05425210891050   -0.89947811241976    4.07361152024239
H         1.91810463285628   -2.03437960693696    4.81716982781841
H         2.27832466422225   -0.49434585051734    5.60823427489864
C         4.35372417377451    2.86515265515600    1.49043348743046
C         3.85475629677507    0.27948689123360    1.93545030504842
C         1.85611189180888    1.84506698072923    0.75977617798246
N         1.27629266058357    1.05763677661128    3.65202118835234
N         1.78340932912004    3.67012567401136    3.20922749946428
N         3.79960487594550    2.07105448306704    4.29768094665878
O         5.22017057459972    3.40834122007658    0.97039259298993
O         4.43363677481947   -0.67670218093750    1.67709442925224
O         1.18424550730286    1.81571583993186   -0.16901832287925
Re        2.90817739670941    1.92021159583122    2.39304446314959
S         2.54348787406288    2.71695192951307    6.67265741362673

