178
CSD_code = SAQQEI | q = 0 | S = 0 | Stoichiometry = C87H85IrN4O | MND = 6
Ir        1.44817985475260    7.12604606564042    2.53221617527915
N         1.44238552784949    7.75763881027391    0.62003062536423
N         0.44155425768648    5.46336482932513    1.98910765425434
N         1.37258989760780    6.53634374208948    4.46663072385797
N         2.38600717879022    8.82614310846044    3.09272807983865
O        -0.59950308492054    8.42690337510206    3.10448082256753
H        -0.24468916689394    8.89969821896368    3.86570201683549
C         2.63091516393444    9.88585489063816    0.89478244577044
C         1.99588904704902    8.90500581657127    0.14193152407517
C         1.81520626441949    8.98033254936201   -1.28036401519900
H         2.16640415567774    9.78446540369490   -1.89808803088479
C         1.14383453354546    7.86522423139254   -1.64843159549928
H         0.83020007122079    7.56789676887436   -2.63039330313788
C         0.91571942492120    7.10478385573218   -0.45165204400111
C         0.26801865511388    5.87377913162764   -0.42471519978146
C         0.06303548801585    5.11887653404206    0.72641907446644
C        -0.62404673408070    3.85906365961459    0.74992301057374
H        -1.02994559730597    3.36813737295200   -0.11315584924439
C        -0.64565448316740    3.44867924892147    2.03925660018081
H        -1.06634663004383    2.54936644791122    2.44521106489354
C         0.01895218920504    4.46139395794981    2.80900487062859
C         0.18631872603944    4.40454882728065    4.18951561369857
C         0.82395608544064    5.38440031618971    4.94548234559226
C         0.96276372016407    5.33547016163466    6.37289414759947
H         0.60593371618938    4.53806924381479    6.99533307066842
C         1.61091608108270    6.46446764858177    6.74324295099288
H         1.89935467123434    6.77428906946032    7.72888403036885
C         1.85889428603841    7.21354003132044    5.54484494670315
C         2.49413318873812    8.45187448220359    5.51697759965152
C         2.73047742768677    9.18979516308335    4.35991292219249
C         3.35966857702372   10.47986083458283    4.34311856307375
H         3.71377168631839   10.99903078112162    5.21259772534286
C         3.40159079317184   10.87790977027599    3.05008243108620
H         3.79593059099469   11.78960634477768    2.64431475940980
C         2.78968340706883    9.83733919367471    2.27515122364664
C         3.17651035214536   11.06161727191352    0.17937701913407
C         4.43643894958727   11.04252159635927   -0.39835942674954
C         4.96588854298856   12.14960892853142   -1.06390614950747
C         4.25554803688246   13.32812922293866   -1.19989597926550
H         4.66255823889064   14.18364758682987   -1.71902392834362
C         2.99439285422900   13.34956226478057   -0.63349343241684
C         2.47100649802091   12.24717113867674    0.04510991735916
C         5.49867869231583    9.98003810728724   -0.40819359231647
H         5.15336271309367    8.96582530531089   -0.22168164350171
C         6.58702232041556   10.47698352896482    0.56679228988845
H         7.34209054122984    9.70537391208623    0.71684766971505
H         6.16169681163123   10.73025006847769    1.53719753808677
C         7.17544104660665   11.70296163096188   -0.16053864085815
H         7.06426418507933   12.62042165118937    0.41657719142628
H         8.23425775885304   11.56368112037777   -0.37928350145620
C         6.36075655791291   11.76281190074248   -1.47192236901154
H         6.81394727260571   12.36807304670001   -2.25418644140421
C         6.16257139518763   10.26903719442077   -1.76037627742308
H         5.49912549213904   10.08489663671601   -2.60455986194184
H         7.09825448257904    9.73093995933648   -1.90549139142575
C         1.91428898565822   14.39627782362378   -0.62554911329726
H         2.23604883292908   15.41516791113221   -0.83053663283874
C         0.81898554687315   13.87009777250550   -1.57961643814952
H         1.23707879899084   13.59358219020549   -2.54699593398072
H         0.05877935145604   14.63442973938033   -1.74227164173725
C         0.24203395304981   12.65734591432367   -0.82177310342703
H        -0.81265657083592   12.80297181527824   -0.58708958833515
H         0.34078619750894   11.72802106437919   -1.38138918075331
C         1.08026639915868   12.62271291322186    0.47362619811075
H         0.65296877848820   12.01895545398151    1.27126542247762
C         1.26993049548433   14.12136449080924    0.73940864025350
H         0.33256664957173   14.65599308145627    0.88845750232069
H         1.94235583262169   14.32151711255464    1.57300030714661
C        -0.24733212686994    5.33540932203844   -1.70181121181581
C         0.35703647585553    4.27225197224337   -2.35589241197419
C        -0.12876374110529    3.77188795714366   -3.56547411964801
C        -1.25583158814728    4.29410450044043   -4.17292933942159
H        -1.63585905490607    3.90137294615075   -5.10476397223071
C        -1.86877070734854    5.34758048100579   -3.51997455828271
C        -1.37136132784877    5.86175957523928   -2.32122702666027
C         1.60909271795961    3.50322645416904   -2.04085814414343
H         1.93818775846036    3.53710013074145   -1.00505218381450
C         2.65729367184568    3.99181305190961   -3.06311765331833
H         3.63838307438784    3.58025275523988   -2.82642797449738
H         2.73358590484852    5.07859104475631   -3.06017127050323
C         2.12575232628537    3.44005869851676   -4.40147865311617
H         1.91658242665402    4.23014379910905   -5.12192398112944
H         2.83379585811026    2.74492068128388   -4.85288575075263
C         0.83431030284251    2.69816799319412   -3.99112945246169
H         0.46578646222052    1.99416277682561   -4.73424137276756
C         1.24486178112259    2.13288340336418   -2.62541820427798
H         2.09040909406617    1.44864122477031   -2.67931956594736
H         0.41997516799290    1.65379896927683   -2.09913379514599
C        -3.12654612715364    6.11743841906978   -3.81597753707372
H        -3.48105632135997    6.07534606124784   -4.84362147041750
C        -4.15781914308984    5.64598904450210   -2.76675246529028
H        -4.23652601315250    4.55951820683742   -2.74942250285298
H        -5.14220380962178    6.05623360236900   -2.99292804289712
C        -3.60342428708140    6.21501144804341   -1.44481345738863
H        -4.30316571291551    6.91697957630523   -0.99096501459999
H        -3.38200228732043    5.43584559598702   -0.71618356223063
C        -2.31880834996187    6.94598520379783   -1.88952923313582
H        -1.92764210030524    7.65575672032280   -1.16458293886274
C        -2.74988411453468    7.49462168627985   -3.25515048669664
H        -3.59333721627226    8.18148070618834   -3.19771713988016
H        -1.93178399987076    7.96503895537505   -3.79933583193967
C        -0.37243568987185    3.23936782562050    4.90805205203036
C        -1.73879023853210    3.06458890867418    5.07594186495197
C        -2.26919322451367    1.98315750464649    5.78157994360245
C        -1.46283457913223    1.00556948256994    6.33444883059189
H        -1.87352242560475    0.16526364101482    6.87489254851056
C        -0.10103908561567    1.16462420287577    6.15564370808443
C         0.43130304307189    2.25803314310902    5.46961899855298
C        -2.90143073503294    3.93168288698273    4.67879420667515
H        -2.71769642633321    4.62880565716954    3.86468153788691
C        -3.39263126725980    4.58458009227606    5.98818641582567
H        -2.57351602485322    5.06831241108006    6.52014410328681
H        -4.15465396196732    5.33578138967789    5.77775138430166
C        -3.98028367050982    3.39394721109071    6.77304696085593
H        -5.04457450323958    3.53243528898666    6.96411013261769
H        -3.47897337837505    3.23972371365399    7.72787632926476
C        -3.75751408179678    2.19718155100823    5.82174338995300
H        -4.35926409305488    1.32149387256481    6.05492817594132
C        -3.98010119522881    2.86423032762758    4.45878332493211
H        -4.98020888579278    3.27941314130315    4.34019185666500
H        -3.75685950160655    2.20404783054270    3.62160376358795
C         1.06739567728003    0.29596434683327    6.53157731857745
H         0.88844091089853   -0.42696642514564    7.32463926116086
C         1.56532336815645   -0.32165897299973    5.20610883877857
H         2.32980389492254   -1.07338046663803    5.40299556913878
H         0.75105674719436   -0.79753378451452    4.66062765704975
C         2.15003501722642    0.88857246539359    4.45012996010276
H         1.65069653408202    1.06742242787011    3.49855649694939
H         3.21491242403796    0.75891354699006    4.25767245497793
C         1.92039210937023    2.05932671432015    5.42959203749568
H         2.51221702610009    2.94671777475550    5.21873330661749
C         2.14214465134185    1.36250580367011    6.77760857036104
H         1.91637351483849    2.00430682010749    7.62854891464621
H         3.14288372850266    0.94757098105047    6.88875695034870
C         2.93876361886489    9.03077688283362    6.80295170012658
C         2.04445058202589    9.53780981591254    7.73481596575041
C         2.46675437404932   10.10603279490535    8.93800077583953
C         3.80367873612688   10.17654074385091    9.28313673680239
H         4.12948761876161   10.61009777578511   10.21731100561809
C         4.69921563587621    9.66067856101935    8.36467042505179
C         4.27889831791187    9.11130402703207    7.15190600173300
C         0.54902831814262    9.69188922783332    7.68862815941880
H         0.02422761135638    9.03515860877863    6.99731918681192
C         0.29661197046528   11.19808829762504    7.46494263209756
H        -0.76307200473994   11.38617181158222    7.28869326683564
H         0.85777594059937   11.57032665513773    6.60789584043985
C         0.76286666977155   11.83058257532616    8.79206087229264
H        -0.05709776506928   12.34229013973741    9.29619356075806
H         1.57364625690095   12.54372279277724    8.64798410092630
C         1.22672374105725   10.61289082971296    9.62188753503712
H         1.31502045711664   10.80501975788752   10.68887789534306
C         0.21038869731875    9.55367941931977    9.17774334911478
H         0.43134207219371    8.56214945386681    9.57112792131080
H        -0.81972423391525    9.81897825662844    9.41264796514874
C         6.19262508301674    9.49048567817232    8.40676088816648
H         6.72452037719497   10.12183646251972    9.11534662726983
C         6.43055843485051    7.97620564752302    8.59844870181187
H         5.86661002574564    7.59080373890277    9.44729642092252
H         7.48833248070732    7.77938723338122    8.77347362053386
C         5.96193926953724    7.37256278562758    7.25905710158128
H         5.14309893601333    6.66492949267781    7.38381507079719
H         6.77776501491998    6.86328944097571    6.74641334927953
C         5.51168578302608    8.61020065356384    6.45392079981435
H         5.41585505501545    8.44193998832556    5.38410201985355
C         6.53511502066170    9.65285021312144    6.92025435006740
H         6.32349097752322   10.65261985970619    6.54254029349918
H         7.56333733207686    9.38326705954772    6.68358774610862
C         3.24446341939921    6.12370951033151    2.21479223768190
H         3.33918578300881    5.28066809126917    2.89867836098646
H         4.09143685243699    6.78951317076506    2.37751003433793
H         3.30515087151601    5.74059027622730    1.19599933158605
C        -1.81993199699776    7.80001774065368    3.47119445552927
H        -1.62578769603532    6.95271908784435    4.14310296781318
H        -2.45456817836338    8.52400899070289    4.00006919094978
C        -2.52332976396358    7.32211660496565    2.21178309504326
H        -2.72911056949347    8.16672817041491    1.55920272188418
H        -3.45972710052663    6.83468506028193    2.46988341461361
H        -1.89083766251039    6.62051309442371    1.67601335558959

