81
CSD_code = SAQVAI | q = 1 | S = 0 | Stoichiometry = C24H54AuP2(1+) | MND = 2
Au        4.32643418016127   -0.00021283874269   -0.00016569332132
P         3.73584394039603    0.64047279882600    2.15352845415361
C         4.36691868842785    2.41646702390806    2.46756637134926
C         5.77578017284760    2.53511755765792    1.87015700281037
H         6.05884614853391    3.58575740321510    1.83896682826720
H         5.79514161968699    2.15578083721424    0.84721634955198
H         6.53224598631500    2.01700090499931    2.44644463197979
C         4.38454549618909    2.85703167862517    3.92963079214660
H         5.12447781492814    2.31406786806532    4.51036941676445
H         3.41307228198601    2.74018675402143    4.40025208172424
H         4.64943779014421    3.91264430102112    3.97274601178066
C         3.49146950477709    3.38122046371579    1.66126719080254
H         3.96372045539376    4.36223828665129    1.64568656246784
H         2.50776695675919    3.50858500586330    2.10080810463743
H         3.39239268598157    3.04803244747586    0.62833220322308
C         1.83297546861105    0.58568495609756    2.31873106296081
C         1.40127353965759   -0.88362725626996    2.36477199839257
H         1.62680007485582   -1.34844464166039    3.31884429781882
H         1.86563700580873   -1.45259400176963    1.55961830357753
H         0.32261029792308   -0.94218124427849    2.22795682606149
C         1.25885134277931    1.31534384936686    3.53118926566119
H         0.18832564685235    1.12066681957501    3.58082614998337
H         1.38880907736757    2.39122747733329    3.45960125893964
H         1.70155961923568    0.96864394850149    4.46006127429232
C         1.22604132195966    1.15686138593181    1.02988842276793
H         0.15946953675825    0.93960209355655    1.01531885339918
H         1.67244186799680    0.68724213664384    0.15191526397761
H         1.33517570398662    2.23067899722448    0.94164130505978
C         4.53343223686793   -0.56508771500706    3.40315429346211
C         3.96745980173249   -0.51011274737709    4.82041755755232
H         2.94410175059076   -0.87095649766136    4.86570865478819
H         4.00510273806557    0.49332535140223    5.23347843553674
H         4.56750503884464   -1.15534955257922    5.46072234490028
C         4.40155328205305   -1.98825065361369    2.84367649823379
H         5.03920785505418   -2.65536090238210    3.42101386012844
H         4.73415560214009   -2.02765217818902    1.80516147960665
H         3.39380174390869   -2.38068143959870    2.90034025614455
C         6.03695068520738   -0.27434432396374    3.44991641999964
H         6.26182232488090    0.63968568329539    3.98950286496950
H         6.45593726828139   -0.22089155357294    2.44528630177040
H         6.54060332517994   -1.08592365817344    3.97270835955780
P         4.91666936252383   -0.64057446840004   -2.15388558489320
C         4.28545014733425   -2.41654005635673   -2.46753621487221
C         2.87658868482121   -2.53514362384681   -1.87012315141847
H         2.59351020500740   -3.58577855583924   -1.83893302538620
H         2.85724432090637   -2.15578947546601   -0.84718795242663
H         2.12014136086849   -2.01701766408378   -2.44642719671628
C         4.26785866367895   -2.85701155471932   -3.92961802056227
H         3.52792582755487   -2.31405473382820   -4.51036150402874
H         5.23933024884498   -2.74016333392385   -4.40024128102682
H         4.00297827550936   -3.91262094682269   -3.97273000593302
C         5.16094083472277   -3.38125613755391   -1.66124589009634
H         4.68868740328871   -4.36227066977634   -1.64566732679091
H         6.14463506219699   -3.50860980023879   -2.10081119712765
H         5.26003230940351   -3.04805429596779   -0.62831514187026
C         6.81952161342736   -0.58566403597766   -2.31870534935530
C         7.25116281178095    0.88365993191111   -2.36476581593450
H         7.02561408538512    1.34846265583740   -3.31884149267944
H         6.78678771599552    1.45261136796722   -1.55960574851810
H         8.32982432861176    0.94221273708285   -2.22796141524885
C         7.39352875993870   -1.31535106260014   -3.53118882016794
H         8.46404383907712   -1.12065187031916   -3.58082893574198
H         7.26359489713047   -2.39123652309117   -3.45959369887607
H         6.95081219626451   -0.96866607612048   -4.46006367076250
C         7.42635580776638   -1.15686710120650   -1.02983196090394
H         8.49292633641751   -0.93960371734721   -1.01524670949439
H         6.97991349010142   -0.68725320528018   -0.15187330754514
H         7.31722282367051   -2.23069099351132   -0.94162592543666
C         4.11891257055164    0.56515677760712   -3.40318031454259
C         4.68491347063072    0.51013730257662   -4.82041465762178
H         5.70828070931658    0.87095111377460   -4.86571330349606
H         4.64724498625441   -0.49329308495845   -5.23349200217569
H         4.08487873912087    1.15539453493605   -5.46070339074488
C         4.25082626664337    1.98830367992427   -2.84367736526661
H         3.61318967290991    2.65544316508282   -3.42100212876904
H         3.91822125445726    2.02766683669861   -1.80516085973711
H         5.25859450097531    2.38069753886637   -2.90031986146890
C         2.61540538610915    0.27437886698243   -3.44991774019142
H         2.39055176927378   -0.63965130969142   -3.98951447507653
H         2.19646148777580    0.22088328728377   -2.44526996484014
H         2.11171989462502    1.08595967504627   -3.97267551013669

