62
CSD_code = SAQWEN | q = 0 | S = 0 | Stoichiometry = C23H29B6PRuS2 | MND = 8
Ru        4.38176142993859    3.99489683588173    4.84585808556990
P         3.88893813617940    3.25691464220178    2.76835533239789
S         5.60459152489980    5.98560739301513    4.02699539445385
S         6.45940335360350    2.64370868341358    4.90663400598110
B         7.38219158872066    5.44116883861427    3.60939432831889
B         7.83939199846738    3.57688020047903    3.95241172855835
B         8.36235106664783    4.94432750992405    5.06938839171626
B         7.87033371855212    3.48056930821477    5.78641817713669
B         7.52055162646993    5.03587032148153    6.76822533982309
B         7.03688830165033    6.29680701247897    5.21520823260647
C         2.23032488807759    3.88069388899000    5.54848723205481
H         1.34379008056701    3.73489561710619    4.94338443445366
C         2.76733368815375    5.12487059302962    5.95020774482169
H         2.34520188483712    6.09949501448276    5.74244120962249
C         3.82940876482335    4.86741929218176    6.86818900591932
H         4.32678043591128    5.61662157599042    7.46979537565129
C         3.94189434700437    3.47255131301663    7.01856441242369
H         4.59151453284584    2.95618432414583    7.71316298184120
C         2.97420669366569    2.84923790697204    6.18684777965617
H         2.71941732114681    1.79856279383609    6.19076174801368
C         2.85606620962743    4.30612351676549    1.69100892372503
C         2.36479631641346    5.50433198180959    2.19044273773401
H         2.62279003228582    5.79053160236131    3.20281835033132
C         1.58153532272084    6.32250159095721    1.39502220472742
H         1.20347296282080    7.25575840168254    1.78601497306059
C         1.28822817804769    5.94567847417723    0.09543474096071
H         0.67728335315196    6.58230517357631   -0.52771157582326
C         1.78558896167939    4.75462292065245   -0.41221270958601
H         1.56211571161108    4.46619252370510   -1.42924942114908
C         2.56994068061248    3.93668357962984    0.37856706413991
H         2.96904895389879    3.01164465383087   -0.01604099592330
C         5.20636467995673    2.85148668158333    1.56293666098177
C         5.79470095107910    3.93338593664150    0.90699309497322
H         5.40898438760849    4.93023660793969    1.08366273421456
C         6.85326340091803    3.73567586990097    0.04162881883571
H         7.30032327172220    4.57865891888863   -0.46434994315517
C         7.34297425893315    2.45642136229160   -0.17073919779670
H         8.17240227879063    2.30018722937912   -0.84437822356619
C         6.76680563035957    1.37994797041930    0.48181234499963
H         7.14662315584032    0.38234794609435    0.31613848322672
C         5.70450686600596    1.57248847132777    1.34855721693301
H         5.25846049752045    0.72674141547852    1.85024697930442
C         2.94352890605419    1.69866147235198    2.86702322126412
C         3.51589949178484    0.68077169892735    3.62993281068233
H         4.47547415564513    0.85472399123850    4.10308488123763
C         2.85687774616141   -0.52180842323494    3.79851799466232
H         3.31054513966893   -1.30863307916426    4.38382663423284
C         1.60809692985850   -0.71296104193300    3.22712361058776
H         1.08827382973248   -1.65004485815616    3.36291878621459
C         1.02192458436380    0.30526571283673    2.49551110930076
H         0.04111658928354    0.16471198486009    2.06439770452294
C         1.68326730218525    1.50869214847488    2.31451272190287
H         1.21189583418148    2.29986151026273    1.74938464783130
H         7.90244930698176    6.07897262377879    2.77135534151760
H         7.15147120841629    4.23849801128345    3.08338324768786
H         8.59829233251973    2.91950906534101    3.34307831293974
H         9.48361273191794    5.29344224178362    5.11670739476805
H         8.56796739983472    2.71088846890176    6.33499409824731
H         6.74431030983429    4.39680507634844    7.40015869845922
H         8.30383213168421    5.56931046228677    7.46781619978739
H         6.64114188219037    5.96663466670737    6.37352175129957
H         7.39007074393356    7.41866237255353    5.23461663068452

