97
CSD_code = SAQXEQ | q = 1 | S = 0 | Stoichiometry = C50H42CuN2P2(1+) | MND = 4
Cu        7.08688538283284    3.89374534217283    7.02048502405878
P         5.92031935710606    5.48850332005756    8.11240549660557
P         6.87239404697518    3.11146603797841    4.88958210217589
N         7.31923173882536    2.13799213768258    8.10837346435471
N         9.12440006191169    4.02559676612407    7.38517653740224
C         5.22401346702222    3.22906331876488    4.12078392408980
C         7.12641980208213    1.32137544054702    5.06439254159505
C         4.61167668964108    5.05387419594334    9.30505885485052
C         7.12530677549584    6.40543936802810    9.12310146907642
C         8.62305321288254    1.88503345436521    8.31218393698947
C         9.57572305840107    2.89152673523489    7.94922903322408
C         5.09780532042058    6.77516182945973    7.12315567022788
C         3.35025714256760    4.74606382896705    8.79640534009132
H         3.16180989523541    4.84384282266983    7.73539706970890
C         7.25703332613346    7.78816902914824    9.12035008330188
H         6.59055812659074    8.39819936598167    8.52786466367119
C         4.98436430954267    2.82450625665479    2.81117281347740
H         5.79052300876003    2.42277289515549    2.21379501771385
C        10.94630208203552    2.66696885688786    8.19370649507285
C         5.34639980071608    6.80527343911374    5.75561171155634
H         6.00361309239975    6.05728590204261    5.32530439630197
C         4.18627761396218    3.75286244595225    4.88351488962533
H         4.39401662968069    4.07526432910547    5.89816212012547
C         8.01022629454592    5.62900996971968    9.87046700634256
H         7.91547806854485    4.54988157589051    9.84569776367341
C         7.95507778470371    3.54868143989448    3.48751158557629
C         8.99841072426044    6.22956010939386   10.62557020893725
H         9.67792331232780    5.62405389789916   11.20751669807259
C         6.41284824372213    1.23533875406666    8.42079732809475
C         4.84845479683133    4.93033070245706   10.66928753422027
H         5.82138719990039    5.16607025049779   11.07578732428497
C         4.74356553070994    7.75883291190394    4.95624487888255
H         4.93498619861606    7.77281732749082    3.89374662939565
C         6.07123580483987    0.41738559762653    5.09600347453446
H         5.06520899462676    0.75676866339437    4.89198142746741
C         4.23233817393114    7.70838215811955    7.68893661567058
H         4.02827921964029    7.67935681778379    8.75051951119418
C         8.50470881993065    2.61040226557460    2.61951808160021
H         8.31862453583144    1.55586005899293    2.76802775869981
C         4.97904166736527    1.57203336904747    8.19389695794424
H         4.50996978067790    1.85150312136146    9.13775039313882
H         4.44330615240063    0.71669495391008    7.78998480233426
H         4.89973723689440    2.41313514365912    7.50793491821328
C         8.25119293351941    8.38476681663007    9.87755173164591
H         8.34893179750740    9.46005080400988    9.87831732733643
C         9.07661006886436    0.67226966345158    8.87070396091670
C         3.88820465555776    8.68911582332266    5.52354698616338
H         3.41389565559981    9.43400888032533    4.90315054882448
C         8.41956969285374    0.88046763259188    5.34385019551161
H         9.23720772289929    1.59088062836248    5.32981889820560
C         2.91681948770023    3.86930736116935    4.34880293153500
H         2.11374347829551    4.27975089917121    4.94278529547517
C         2.33738143974358    4.34113490698341    9.64388114022801
H         1.36017779818425    4.11447651845811    9.24462636257726
C         8.65480293966521   -0.45000880745368    5.62817687154735
H         9.65966156258042   -0.78701893809635    5.83697577415940
C         9.96338288525461    4.99151289392316    7.07576198967066
C         3.82926525951012    4.52393034958904   11.51324781312098
H         4.01540813149756    4.44182349204254   12.57369726680528
C         6.77880332402190   -0.00631244848694    8.96901114135029
H         6.00958328819652   -0.72310401245038    9.20900002024264
C        11.34472749596515    4.85910166266337    7.30527324698247
H        12.00195802728044    5.67286812489569    7.04232148046297
C         3.71285817228875    2.94127775430961    2.28078174063094
H         3.52534136622910    2.62659472458557    1.26526641314562
C        10.46864281523610    0.46948469144320    9.07896254977836
H        10.78932183282853   -0.46982219688387    9.50374984605886
C         9.11893117302164    7.61098887032989   10.62998550137379
H         9.89190397219132    8.08273976505754   11.21729031952891
C         2.57542050533385    4.22831632416693   11.00499319759819
H         1.78372738330007    3.91433849393332   11.66777373377071
C         3.63404563416559    8.66218305756808    6.88668834971068
H         2.96440060467880    9.38690300830145    7.32480356564915
C        11.36809577348269    1.43266690186935    8.76079089263076
H        12.42406838694416    1.28282011923152    8.92827120935528
C         7.60010973919819   -1.35013737366113    5.64899529753393
H         7.78360576862860   -2.39003616649333    5.87219450279672
C         9.41737842402345    6.24144691905546    6.47554118888402
H         8.33108302687793    6.18659805663294    6.42513183822051
H         9.82104716926416    6.38462330785043    5.47424838525556
H         9.70188850076731    7.10115764975863    7.08020395249183
C         8.10087834321381   -0.28765292898735    9.19415031528316
H         8.40513966882980   -1.23344978935596    9.61729808271923
C         2.68061078185477    3.46293789997480    3.04564689312503
H         1.69178969671524    3.55518155020198    2.62317759300159
C         8.20413988495899    4.90284511691305    3.28118360505983
H         7.77246756078852    5.63105559017603    3.95445855114555
C        11.83599096844803    3.70175620128160    7.85023357474807
H        12.89402688435466    3.57270443622977    8.02413447914069
C         9.53683028072444    4.37782068278560    1.36094205674988
H        10.15173599378154    4.69717753686999    0.53356033934371
C         8.98970622814783    5.31575943869908    2.22153871079039
H         9.17554005532501    6.36801161425961    2.06476631031113
C         9.29254486992343    3.02908670449722    1.56203177933096
H         9.71452518333838    2.29766022086112    0.88908566567923
C         6.31306245260102   -0.91533245796763    5.38110496299722
H         5.49282077249371   -1.61761418077682    5.39432006000108

