83
CSD_code = SARFIC | q = 1 | S = 0 | Stoichiometry = C42H36CuN4(1+) | MND = 2
Cu        0.65814947998032    4.16153164044850   10.98351500453646
C         2.51770781471636    4.72318525169306   10.61574929718056
N         3.07885797238232    4.83970805033583    9.39491392483775
C         4.27722526593431    5.50985360557743    9.47907807447065
C         4.46906058150206    5.80065378060871   10.84015733943024
N         3.37234100244836    5.28959005549618   11.49693246649919
C         3.15290603898092    5.33935464563300   12.92091663763183
H         4.10194560998965    5.59491045973683   13.40141882477866
H         2.85745837188777    4.34361488406579   13.26955364353805
C         2.09737211677090    6.34224024234930   13.32792657259141
C         1.81166170802145    7.45435129898942   12.54836056705820
H         2.34156685679041    7.62077968759683   11.62120723631949
C         0.85056493091798    8.36379305083604   12.95606182218573
H         0.63688642916209    9.22562395754496   12.34251843928208
C         0.17457923174199    8.17553938253569   14.14905841041840
H        -0.56890661193112    8.88921995703195   14.46838166145788
C         0.46196044111755    7.07201348249849   14.93511852139245
H        -0.05595078527431    6.92116543331692   15.86997587033231
C         1.41565940666767    6.15708013029047   14.52465704563005
H         1.63771563087469    5.29515103363951   15.13830980850154
C         5.59515560963472    6.48736155781617   11.27495677965228
H         5.75088192948023    6.72727037134335   12.31465848658327
C         6.50964916988501    6.86559145736332   10.31343578317862
H         7.39565016810833    7.40321294137678   10.61180074259972
C         6.31688526606674    6.57644826111831    8.96085364610047
H         7.05839006493302    6.89788022373990    8.24687007763764
C         5.20103651488488    5.89669795775841    8.51796848848586
H         5.04891128981901    5.68719490179542    7.47187423196713
C         2.51841435584836    4.33037391824608    8.16714671215455
H         1.79557774069582    3.54924025672836    8.42833705375317
H         3.32113310063628    3.87642471833251    7.58001660512873
C         1.83354868534338    5.41070521454099    7.36340417448973
C         0.85268034277802    6.19800561880747    7.95317055989141
H         0.59043088817084    6.03546166742607    8.99144674412585
C         0.21321600437856    7.18332808000586    7.22325037472598
H        -0.54642625075363    7.79126338546737    7.69128631070806
C         0.54627629197080    7.38798281522541    5.89432059791984
H         0.04745115455849    8.15639458004351    5.32440125518402
C         1.51996223529230    6.60425441758782    5.29987217032669
H         1.78248068449712    6.75947003639389    4.26473006328508
C         2.16330493115732    5.62125484389410    6.03253733174666
H         2.92110139403593    5.01053483758103    5.56302373242471
C        -1.20148561394940    3.60038661935867   11.35172347380634
N        -1.76277575904474    3.48558675566602   12.57265808560737
C        -2.96131446688169    2.81565227973836   12.48924880196331
C        -3.15310885654778    2.52315384459642   11.12852628544081
N        -2.05617685690467    3.03304833146796   10.47120072121566
C        -1.83643626277602    2.98122505319147    9.04732723092928
H        -2.78506086816142    2.72367545242652    8.56708260286072
H        -1.54215351709142    3.97674347268902    8.69706668288131
C        -0.77957847090909    1.97892491313968    8.64233864120589
C        -0.49379609652961    0.86779446946449    9.42329320043336
H        -1.02465229708937    0.70179546295195   10.34997951368550
C         0.46851007715730   -0.04123036778081    9.01754229600020
H         0.68220006096495   -0.90231447339114    9.63212721747182
C         1.14565827840517    0.14644250262533    7.82510850309528
H         1.89010741638152   -0.56691105652570    7.50730064119290
C         0.85819815152901    1.24894732618478    7.03765119418768
H         1.37703377306390    1.39932446771732    6.10323107167059
C        -0.09672498745446    2.16348490272350    7.44617254857712
H        -0.31888325011676    3.02459475686751    6.83140314536960
C        -4.27938383617683    1.83623867536941   10.69452179443989
H        -4.43514496762293    1.59508587782393    9.65511253494243
C        -5.19407141857333    1.45951890860713   11.65645100939696
H        -6.08019878635876    0.92176774231578   11.35869879398320
C        -5.00132638931966    1.75032009241848   13.00868067339762
H        -5.74295461429249    1.42996803236853   13.72302002909071
C        -3.88530330013847    2.43029313562397   13.45078431337638
H        -3.73318846534583    2.64108583913947   14.49662299542123
C        -1.20226483310608    3.99625027872748   13.79983008907980
H        -0.47932474014477    4.77699982174024   13.53778664805831
H        -2.00491024813286    4.45096486311292   14.38646587240537
C        -0.51747392418587    2.91681101098405   14.60483318191138
C         0.46246801262494    2.12790770169446   14.01569093226022
H         0.72416065905039    2.28860178646732   12.97692853512628
C         1.10186246833040    1.14342871747339   14.74681974210514
H         1.86087571531208    0.53428736029202   14.27925677230696
C         0.76970474550540    0.94125968578540   16.07632822765140
H         1.26850064897754    0.17352253244388   16.64717223221948
C        -0.20313322738751    1.72652512340305   16.67015902157797
H        -0.46500014974481    1.57320211031998   17.70576677456795
C        -0.84643596465144    2.70866314430923   15.93629464535594
H        -1.60349090277031    3.32066075365856   16.40532023359068

