94
CSD_code = SARKUS | q = 0 | S = 0 | Stoichiometry = C43H44Cl2NP3Ru | MND = 6
Ru        6.70572876056489    5.17148813426027    3.35317990411809
Cl        8.59940039712636    5.45431527747755    1.89296457474864
Cl        4.45566099905032    4.80570011679530    4.12551040651862
P         5.87204175548562    7.27601189632677    2.95211221131815
P         7.37578468815893    6.01131445266016    5.36855370991432
P         7.50559990630410    3.03226209044484    3.59727822421560
N         5.86794817591830    4.34382287429989    1.50776916801819
H         4.94281546549575    4.74830384449448    1.34168023039854
H         6.49514708108952    4.64403419557295    0.75317388976794
C         5.47920810733585    7.90908626197527    4.63834895293853
H         4.71113240952110    7.23149141905741    5.03036691669550
C         6.76470704463294    7.76584362210721    5.46613768737651
H         7.55492993907080    8.33089982140451    4.94374947050769
C         6.44360424314429    8.48081998807648    6.78358001117892
H         6.11084191070948    7.77429371443486    7.54499241276423
H         7.32055657286564    9.00193494060260    7.16636560051891
C         5.31080976276290    9.47138561940787    6.42862413616503
H         5.56361467149949   10.49161769401786    6.71489127248598
H         4.39663017273611    9.19521626404973    6.95539511304255
C         5.08871468108811    9.35460483273776    4.91194659755348
H         4.06265260176960    9.58580369288275    4.62787214542639
H         5.75655972250726   10.03302578246934    4.37604671043712
C         6.84529852060840    8.66764914584533    2.29656084559972
C         6.23483601879146    9.76840279080341    1.70112676947200
H         5.16252353208664    9.78147822841626    1.56076418906380
C         6.99991366542481   10.84314054601101    1.28829743015052
H         6.52195772098762   11.69389915521930    0.82383733027119
C         8.37385377181921   10.83299633602277    1.47136018545688
H         8.96678558151092   11.67474027359878    1.14420378752929
C         8.98408644240049    9.74378456368633    2.06965099012532
H        10.05467077295414    9.73010869734961    2.21190346975193
C         8.22381542942727    8.66424973268842    2.48259669554349
H         8.70147404198247    7.80141968646843    2.92767001776565
C         4.34316935541417    7.38335391203376    1.98048393232731
C         3.06957245640541    7.43840999165358    2.53221100935961
H         2.94345150349681    7.48676691447205    3.60241644549933
C         1.95965690057740    7.41069262920688    1.70529589696223
H         0.97057579968874    7.45481188605917    2.13728168321870
C         2.10963267027165    7.32012214602952    0.33166358408152
H         1.23919410173287    7.29755056408049   -0.30749767739119
C         3.37801347227241    7.25074126044779   -0.22447467791260
H         3.49769523255895    7.17417196524956   -1.29582322488703
C         4.48867316757963    7.27517440156724    0.59643845880657
H         5.48787578744275    7.22365704261015    0.17675245919205
C         9.11784929169503    6.23740399553799    5.85410472107975
C         9.44668392096382    6.75074421241062    7.10694318877503
H         8.66141694530262    6.99658336514170    7.80806011202864
C        10.77189780850308    6.92355992300056    7.45557404096730
H        11.02440474924813    7.32078475552160    8.42854130284389
C        11.77796401924205    6.58347004331293    6.56293982991619
H        12.81293999941785    6.71592510948142    6.84352067644305
C        11.45512728473478    6.07447092189236    5.31762421763126
H        12.23404345071955    5.80594481092674    4.61939466848828
C        10.12803998896566    5.90366989987689    4.96226411087059
H         9.87103519823102    5.50882366624333    3.98989608651686
C         6.71692934525623    5.16186329006146    6.84025678198336
C         7.53311280203039    4.26443515210987    7.52531699607180
H         8.57176910430470    4.17028203896863    7.24070471386552
C         7.02738785978411    3.50850243770070    8.56572616527510
H         7.66970972029550    2.81205297789115    9.08577940500690
C         5.69982861811853    3.63938874383759    8.93835332247720
H         5.30434436892972    3.04611507440835    9.74998226777938
C         4.88130597501440    4.52917998193680    8.26367312905313
H         3.84343181781361    4.63115765058118    8.54632129715001
C         5.38115016994242    5.28099290255084    7.21560245023812
H         4.72124816585977    5.94101327391814    6.67521296810377
C         5.77793642551325    2.88261297784193    1.52515570905309
H         5.46671557602836    2.49242945595774    0.54451369902966
H         5.02352807509585    2.59918070430642    2.27052141282211
C         7.13413303648440    2.30951862380150    1.92760742754264
H         7.89899863656205    2.64247275733551    1.21998442155075
H         7.11468590619083    1.21794169329457    1.96207423152864
C         9.28135142742348    2.72766019391571    3.85770417622566
C        10.23002265383925    2.84233506224216    2.84727918704887
H         9.92975115105516    3.05666188194008    1.83375424213507
C        11.57632947672613    2.71793313307851    3.14262592279071
H        12.30559740954799    2.81006038503386    2.35071042001925
C        11.99165368735798    2.48860655094031    4.44295709367509
H        13.04442199955654    2.40028101982415    4.66897778884363
C        11.05228099154359    2.37489825343323    5.45488044076436
H        11.36959062205855    2.19676392927954    6.47249148447447
C         9.70748352028017    2.49396514375665    5.16410195947240
H         8.96956589117431    2.39716391914815    5.94893613144029
C         6.80477166465903    1.74012617488286    4.67758336946083
C         7.31804448240552    0.44557085938767    4.62372785633536
H         8.13478067992337    0.21862222561254    3.95032398112752
C         6.79872771491583   -0.53941835539358    5.43993601518547
H         7.19931072621206   -1.54221158950091    5.39479877364453
C         5.76764516043352   -0.24180941739816    6.31922103381322
H         5.36693260411644   -1.01507802431405    6.95874203423727
C         5.25586310834809    1.04202932789696    6.37513071231748
H         4.45304300250493    1.27917777660259    7.05745002272139
C         5.77159566475525    2.03250978114787    5.55612973776444
H         5.36470308657328    3.03173292354669    5.58892931632152

