82
CSD_code = SARKEC | q = 0 | S = 0 | Stoichiometry = C37H42P2Ru | MND = 8
Ru        8.22526646388651    4.74391504323979    9.97402808690687
P         8.28596268835427    3.09768398304306    8.39351207735176
C         6.55541046707301    6.12205172271733   10.25493893628742
C         5.99790456561726    4.88851545618452    9.85102085580159
H         5.54213386238546    4.26810477540771   10.62160244250482
H         5.43176413912416    4.88224302968485    8.92132484924828
C         7.27639503550924    6.12892586871413   11.47484471506015
H         6.86427490975721    5.53632149971723   12.29378660628291
H         7.65878616156461    7.08818116002386   11.81627034455821
C         6.34381291371176    7.37247254637561    9.44300690355858
H         5.40723662717701    7.82705176943879    9.77703655909262
H         6.24636144952597    7.15377486643401    8.38068489581854
H         7.13666646712737    8.10339076901302    9.59238572502225
C         7.91459491964829    1.49561657567750    9.27040946671358
H         6.82064251351695    1.52087284770831    9.38123112659055
C         8.33546237817654    0.12355964967130    8.74289528795345
H         7.71590699483112   -0.23233554060415    7.92119874330521
H         9.36491279422504    0.15925931787033    8.38397725675786
C         8.22505176421205   -0.79888320679040    9.97406087673640
H         7.34907155986840   -1.44364699381295    9.90104303674960
H         9.10102841736368   -1.44364991804685   10.04708624041684
C         9.70627034084288    2.64744685923907    7.32403568263292
C        10.86718941500314    2.15100497590468    7.91689421178127
H        10.89844534662246    1.99815102909936    8.98715050833541
C        11.98069258252811    1.85727062973262    7.15281375737070
H        12.87030801973174    1.46662623348719    7.62627445814888
C        11.95928459384679    2.07102475142492    5.78428197484026
H        12.83041007653840    1.84596721467757    5.18673086241152
C        10.81880647732835    2.58152572055676    5.18836876864348
H        10.79865732895615    2.75707839585154    4.12231492085395
C         9.70087513323323    2.87113849163765    5.95054338174496
H         8.81724926541223    3.26982108333086    5.47315755238099
C         6.96866109814264    3.17242306272895    7.12318599507378
C         6.20972277791265    2.08944930885997    6.69698800137572
H         6.37744905808972    1.10655454260585    7.10691201456410
C         5.22540689606624    2.25852075689012    5.73757226897941
H         4.63959191137768    1.40808281818874    5.41824081377007
C         4.98959327244140    3.50542956573356    5.18598182026068
H         4.22106327993156    3.63118576863654    4.43729903016825
C         5.74143939893915    4.59219413240702    5.60337885000024
H         5.56051277593128    5.57009446795909    5.17989701380860
C         6.71716235053794    4.42540930086088    6.56696468925041
H         7.29621148756408    5.27035651650713    6.91338690162616
P         8.16436986590869    3.09769421584114   11.55458445120915
C         9.89490539076618    6.12222790014000    9.69314179947096
C        10.45250605726172    4.88872749393246   10.09706799315147
H        10.90821698918077    4.26823816152969    9.32652391711404
H        11.01855994946954    4.88242094064302   11.02682589043053
C         9.17390214833893    6.12907606446416    8.47324352585288
H         9.58597956745091    5.53643956088098    7.65430690235414
H         8.79143096098290    7.08830229664341    8.13182302249886
C        10.10632313622650    7.37262655798219   10.50514997764669
H        11.04287549507917    7.82728263935986   10.17116933970622
H        10.20373562019169    7.15389450009897   11.56747077875266
H         9.31340384276819    8.10346595528977   10.35574477896073
C         8.53556159381831    1.49562159314617   10.67764655966189
H         9.62951016817572    1.52078076719007   10.56675954973548
C         8.11465039855287    0.12359842764663   11.20519545371640
H         8.73417929397872   -0.23226097590971   12.02692864295603
H         7.08519605172037    0.15933831538337   11.56409261366443
C         6.74424455952588    2.64748892120419   12.62428622627798
C         5.58325664846360    2.15101935561903   12.03159152786908
H         5.55188255384776    1.99808003968620   10.96134693565461
C         4.46983501592687    1.85738228284132   12.79582078365754
H         3.58017302551646    1.46667483324844   12.32250088500940
C         4.49140120901760    2.07127489787402   14.16432846408457
H         3.62035199824485    1.84625898558668   14.76200500733001
C         5.63194676305379    2.58183357349847   14.76006588891949
H         5.65222630391857    2.75748473865238   15.82610134300596
C         6.74979883381827    2.87134027299988   13.99774353105054
H         7.63347876427367    3.27007449806816   14.47498171331334
C         9.48193867139220    3.17230738390229   12.82465449818433
C        10.24114399959219    2.08938502950902   13.25046918860138
H        10.07354786635340    1.10653400786536   12.84033488016122
C        11.22569142364752    2.25843170549515   14.20965527768357
H        11.81176086965302    1.40803707007978   14.52864136575849
C        11.46147690007846    3.50526031003826   14.76139451905600
H        12.23016644128237    3.63100762618779   15.50991314975282
C        10.70934510468522    4.59197341321398   14.34440736757668
H        10.89014160504233    5.56982926523365   14.76812043225847
C         9.73339847737076    4.42521635748199   13.38104143615873
H         9.15403645578711    5.27015016946558   13.03500187101589

