79
CSD_code = SARLED | q = 0 | S = 0 | Stoichiometry = C32H40Cl2N2P2Ru | MND = 6
Ru        5.70684937082482    4.53950381060036    3.62455339845027
Cl        6.91283206363322    6.13085536703385    2.28217386447010
Cl        4.41326930091543    3.54087321555567    5.39112376193755
P         4.24807089080655    3.66103092285440    2.14670344700941
P         7.47236133021536    3.14255754638200    3.47113170641127
N         4.12987306203639    6.06091997935185    3.81991614491014
H         3.72778509398778    5.81964295601601    4.73363688082044
H         4.52886066656861    7.00112112802535    3.87068364757347
N         6.94979117958484    5.46023886346106    5.18805600499258
H         7.26677093608039    6.31723161761349    4.71923755656780
H         6.38606787180392    5.71622027249143    6.00195025758965
C         3.05229356236395    6.05644295074644    2.81116018481443
C         1.82651252314308    6.79165296250613    3.36822602588221
H         2.07878171888822    7.82027327697447    3.62200656965375
H         1.45188499929367    6.29477853784739    4.26208496619800
H         1.02974752862149    6.81133391072578    2.62915754456324
C         3.56590168018475    6.75275666369275    1.55471284908702
H         3.69878120450761    7.81896899982125    1.73156292734474
H         2.87192800979474    6.62227606212326    0.72851241124494
H         4.52936681106428    6.33112536108388    1.26982886702989
C         2.69157227469612    4.59594952716554    2.50926376206167
H         1.97564973636001    4.52575369957561    1.68807148967226
H         2.25727220576602    4.14395649764229    3.40613639473163
C         8.13178589121428    4.70523693476899    5.64779830246587
C         7.66826790301064    3.64788105723759    6.64511453819054
H         7.33323588179760    4.11202562378058    7.57143669200040
H         8.47229642813840    2.95405623161782    6.87610842857799
H         6.83481621739947    3.08680219644006    6.22338057336263
C         9.12803419959686    5.66615733353029    6.30918226421253
H         9.46608540709409    6.41988401502927    5.59937747904909
H         9.99716714113329    5.12099104814586    6.66810740581267
H         8.66907142098259    6.16958332289032    7.15888737364538
C         8.77922449584203    4.04549885352868    4.42311116253076
H         9.59768014293222    3.38483781313718    4.71532661659594
H         9.16547567569127    4.82579101308712    3.76028149605599
C         4.38198196818476    3.73369679000060    0.32895794589692
C         5.56907089266252    4.15389608514857   -0.25497707762964
H         6.38813931278137    4.46521839376295    0.37691628296626
C         5.69597445396515    4.17739434934749   -1.63276250335480
H         6.62359597374370    4.50294275321205   -2.07990279676935
C         4.63658496592714    3.78315597650936   -2.43150488777582
H         4.73210554457472    3.80245328017617   -3.50755787181631
C         3.45066483648850    3.35696456000952   -1.85220794371607
H         2.62658872415905    3.04293278924569   -2.47711152879909
C         3.32328656791210    3.32577641491291   -0.47694845771232
H         2.40775362516287    2.96915792498731   -0.02298041784938
C         3.77832908286250    1.90936161486251    2.33266916465328
C         2.92438539024301    1.44842285976267    3.32931163007088
H         2.42900281148483    2.14054942216599    3.99247637878434
C         2.72916502380718    0.08967540758322    3.50553033556703
H         2.06346744516260   -0.25650626231239    4.28313371276235
C         3.39062305276222   -0.82346674375222    2.70261279644374
H         3.24177468424432   -1.88340189322645    2.84958711443028
C         4.24953628193493   -0.37296825262196    1.71327063727178
H         4.77285444032406   -1.08112482193414    1.08657447629890
C         4.44260300414954    0.98250935354893    1.53008488073872
H         5.11290786780391    1.33804489618058    0.75891232535605
C         8.22664929603351    2.86049295454051    1.83488098287695
C         7.89284912032513    1.68682651234685    1.16028365224973
H         7.29999143901135    0.93677890443952    1.66616002201334
C         8.31468488361702    1.47781833960050   -0.13867926574528
H         8.04702875255481    0.56456242122781   -0.65094515180866
C         9.07476569042165    2.43896142543948   -0.78474717129408
H         9.40188129658751    2.27790277837771   -1.80174492266501
C         9.40809644454196    3.60858418819926   -0.12362398181123
H         9.99490029434854    4.36485340788134   -0.62493572164529
C         8.98301038142360    3.82436972075307    1.17544184081590
H         9.21977976928879    4.76034434684792    1.65723986217281
C         7.55961867021817    1.44342781494451    4.13027096406196
C         8.76949748960212    0.75627194140523    4.16338778890376
H         9.67040967732632    1.23420660316217    3.80101449195528
C         8.81467291793756   -0.54048570015725    4.63765846234418
H         9.75559860887969   -1.07164217284419    4.66554715560783
C         7.65382929056239   -1.16387046689468    5.07058463174601
H         7.69411303387584   -2.17936573040358    5.43737749056653
C         6.44688465148856   -0.48786028198640    5.02765512433071
H         5.53936293863406   -0.97170162667811    5.35729946142660
C         6.39954407788075    0.81352743992876    4.55949224225767
H         5.46317049911857    1.35110270981749    4.52849485030161

