50
CSD_code = SARPEG | q = 0 | S = 0 | Stoichiometry = C23H22FeNO2P | MND = 6
Fe        4.55262925231449    2.83247278188426    2.43884887120205
P         5.72791904623897    3.93083938689298    3.90437310444941
C         4.33618406621563    4.31801950151588    1.51165233671449
C         6.27043698481469    1.25278179586507    2.06309965095433
C         5.67594832428416    1.66992507650015    0.88390445118634
C         4.28014361027307    1.51840350808862    0.68391036337211
C         3.66864318825414    1.90551636031442   -0.63676330852514
C         5.19415908096945    5.65193122769450    4.21275848652866
C         3.82163719612561    5.85825978119592    4.32636403870975
C         3.32497744339505    7.12314978138184    4.57682219171910
C         4.19493297082030    8.19349087276914    4.71144157796576
C         5.56044290047476    7.99409847398517    4.59851114380327
C         6.06380708020025    6.72840111860058    4.35251155899580
C         5.82157388518298    3.31786675878143    5.63061074056125
C         6.16085427770161    4.15550243901749    6.68985588919639
C         6.23348135428774    3.64906988889163    7.97438358351677
C         5.97150313732513    2.30904698736613    8.21281109026174
C         5.63527187440777    1.47166500325091    7.16225846939442
C         5.55870956427714    1.97506610842135    5.87612758085705
C         7.49886220575439    4.15734334669438    3.50882045124178
C         8.52988913890823    3.63598554070490    4.28110577215944
C         9.84523041001063    3.80158751751101    3.87977056681584
C        10.13901664025687    4.47955347751016    2.70918112611978
C         9.11258544902946    4.99113371498491    1.92860519500144
C         7.79946108888376    4.82353610652451    2.32172161209570
N         3.32155479343730    2.35962028850531    3.38915030956503
O         4.07998105968685    5.32011164933212    0.99390631710530
O         2.40914431521722    2.37833540270484    4.14428920974172
H         5.85470614174232    0.41187965193357    2.60507180082860
H         7.32468473941249    1.42430451922041    2.22702013201292
H         6.24974893336656    2.25739261379745    0.17171446159744
H         3.82380078394464    0.62608790618369    1.11821290521513
H         4.12190303846481    2.81411370369294   -1.02772111631605
H         3.81529021240096    1.10548122437710   -1.36730110251867
H         2.59875081567577    2.07031961428862   -0.53328242206885
H         3.15079543586559    5.01703011562816    4.20413416935913
H         2.25941733696829    7.27700818003290    4.66035324078743
H         3.80852300651343    9.18412967979438    4.90045822647486
H         6.23955942143225    8.82818988020818    4.70162756896803
H         7.13162233961306    6.58073363503633    4.26422883445687
H         6.36403214534336    5.20136482419685    6.50653580159216
H         6.49323138133868    4.30301360198951    8.79413582502774
H         6.02661478729642    1.91928230064920    9.21855666013896
H         5.42853560118682    0.42760266766586    7.34677825439805
H         5.28726264757715    1.33237590668394    5.04849701171965
H         8.30662351422574    3.10248706994141    5.19444404362936
H        10.64355583254247    3.39619086188996    4.48460133366462
H        11.16629574640496    4.60563148533796    2.40075587146012
H         9.33962179549186    5.51646433587480    1.01237566597162
H         6.98864400444589    5.20990232468757    1.71727045289114

