41
CSD_code = SARPUX | q = 0 | S = 0 | Stoichiometry = C12H18Cl2HgN6S2 | MND = 4
Hg        4.93816224733755    6.29737371713347   11.64653159734936
Cl        6.83437044733581    7.56157837337908   11.07879746697205
S         5.63565801203795    5.45572333737184   14.18675659777470
C         9.51333940526723    5.20745558844945   17.00369212467110
C         8.41162206289573    4.57396369224140   17.63174869895807
C         7.35885713907118    4.68470532260592   16.76572762417385
C         7.25744834780610    5.76661037630855   14.48932818258706
C        10.89083880530021    5.35905105944218   17.53053137034476
C         5.97385699529824    4.19533986224253   16.93035609688796
N         7.84393623876998    5.36440647229542   15.66737434465162
N         9.15703636878673    5.67308612282337   15.83268462553358
N         8.06368163980082    6.39318423211507   13.65836485988686
S         4.80271663467513    3.79010098943480   10.47526624619612
C         1.51789600825183    0.70920260970238    8.81516823136944
C         2.81483408668211    0.14840018196625    8.70176836613827
C         3.68258856077961    1.08172258802532    9.19834328264312
C         3.21091427042160    3.37196351891344   10.14482102374333
C         0.22871968677253    0.09598435292588    8.41508554408113
C         5.15401682912635    1.00288254447683    9.31462199686875
N         2.90353649224385    2.15186170109692    9.58727840255652
N         1.58930801537711    1.90449179581635    9.34554928868681
N         2.17243771414750    4.14416536049912   10.38658113582202
Cl        2.71740045963267    7.01377926632098   11.38612856289373
H        10.87186154774844    5.89807016256061   18.47633392821204
H        11.33223202670310    4.37977610155267   17.70923406284064
H        11.50158315273617    5.90417537874254   16.81708772022363
H         5.70892417368436    3.50292215860046   16.13320321604102
H         5.26396577205107    5.01988282625114   16.89270957361861
H         5.88796258991839    3.69091524849167   17.88923394547653
H         7.74276760261468    6.78862091508631   12.76526766499183
H         9.01779142365491    6.52434794905995   13.97673488205251
H         5.46742678151677    1.10692775228395   10.35195698824326
H         0.23081559366859   -0.11415913979418    7.34663732374846
H        -0.58959201417480    0.77112006361635    8.64699650374730
H         0.08252375272926   -0.84472504495313    8.94349156785989
H         8.40707650370724    4.10387625642369   18.59364109076835
H         5.48862607419219    0.04229045217442    8.93178480552043
H         5.63180401438819    1.80163153573919    8.75001835631003
H         2.26433653877185    5.09976994508967   10.75426787924271
H         1.26728549547739    3.76891734172448   10.12430260702725
H         3.06313250278921   -0.81429296827491    8.30449221333894

