60
CSD_code = SARQIO | q = 0 | S = 0 | Stoichiometry = C17H34ClN4P3Ru | MND = 6
C        13.70159654722738    6.34577782729268   10.55098140749767
C        12.76864546508370    7.01771248733278   11.34411570302359
H        12.39474858934551    6.51998341181856   12.22420992269495
C        12.36317960509732    8.28229032206206   10.97664820809294
H        11.64348213979669    8.82500118608634   11.57098685636534
C        12.90013332049034    8.84881332455736    9.82266976632790
H        12.61010460301049    9.83580630982799    9.49953462107450
C        13.81862451570095    8.12621869349635    9.08691378885114
H        14.25926195618348    8.53127367954837    8.18326263122705
C        14.20019561238439    5.03676527272254   10.82509534002049
C        14.72977201509672    3.12762852192463   11.50118848201204
C        14.81411066031007    1.88729909038152   12.31216588514809
H        14.69438711596184    1.01239299882311   11.67576699178592
H        14.03488864277019    1.90275621179234   13.06870421365664
H        15.78605124635486    1.82220219009579   12.80076726435465
C        14.11692050439263    4.74659839700896    5.34342836982858
H        13.18116290525210    4.52662903703742    4.82912831380485
H        14.81846569731539    3.92907524985097    5.19526722264358
H        14.55582113855866    5.66153874550779    4.94391015944273
C        12.45988757116162    6.27962081987196    6.93611027029596
H        12.88971427969403    7.20273724990945    6.54870851079074
H        11.97944889896964    6.47520619637219    7.89440275299307
H        11.71778927536248    5.90084981116632    6.23251546530035
C        12.80178920404435    3.58976867533728    7.62539958138950
H        12.37608030117530    3.79418814082101    8.60841518227394
H        13.43024972397851    2.70604351736511    7.70458824580131
H        11.99833268692454    3.41229842905234    6.91080254790114
C        17.94988386463843    4.40678521233950    6.11619097788345
H        18.55684152303413    5.30034598820395    6.25349881693855
H        17.24883446906478    4.60428663126337    5.30683000366872
H        18.58310115080582    3.55546935732242    5.86719814435393
C        16.28568527111970    2.43876134976582    7.32511239756373
H        15.51749739928709    2.48238447766771    6.55745692020500
H        15.84751996304230    2.10130433416503    8.26363916176092
H        17.07112042547677    1.74974451330180    7.01455854475748
C        18.32250006406935    3.52040527180035    8.79382324181787
H        18.89026495654422    2.71580152261130    8.32649418980109
H        17.81930784843060    3.14806369362446    9.68535788666900
H        18.99620863390193    4.32943861639103    9.06400366302348
C        18.77172386964276    7.23344457809878    8.74192883477408
H        19.41222860746041    7.84456143662387    9.37815724105390
H        18.50543934998952    7.78572206672086    7.84000309590833
H        19.29795174624800    6.32670285278225    8.45295875942487
C        17.76664531421282    6.20812827565523   11.23462513152525
H        18.16588616855841    5.20240472187737   11.12890771153500
H        16.90286954430539    6.16390528799826   11.89888006230638
H        18.52247666188902    6.86529076310601   11.66419267893745
C        16.76291106018982    8.55971853889559   10.10088258401842
H        17.62688640407768    9.03469888408057   10.56684435999606
H        15.93177136881747    8.55522051868872   10.80567005263785
H        16.48040016488821    9.11617669988017    9.20785838405694
N        14.21789855927959    6.90552908333343    9.43019285423353
N        15.09700028588281    4.52711240741963    9.96187763053853
N        15.43871261721473    3.32448134199736   10.37629919557233
N        13.94741424488294    4.16280945467800   11.81770949085201
P        13.80254005201837    5.04350645820718    7.12316075973958
P        17.00556948517042    4.09070763582756    7.65520619995496
P        17.20532570442631    6.84841210975319    9.60915708316476
Cl       15.97398237604070    7.31564554986427    6.71994517724672
Ru       15.57415662374252    5.70205456899811    8.44659105947428

