49
CSD_code = SARRUA | q = -1 | S = 0 | Stoichiometry = C19H21ClFeN3O4(1-) | MND = 6
Fe       11.61552061298576   11.25981424255673   11.19163284225598
Cl       10.08138250816112   12.62953078194174   11.73187620631243
N        13.04903394789057   10.02957760931079   10.65885225860763
C        13.94396122573018    9.89701675866835   11.80429364274248
H        14.74631026748644   10.63586789869884   11.74726268898883
H        14.38838085451912    8.90023969756817   11.87911653854660
C        13.21102048423158   10.21809646074825   13.16446466598819
O        13.74626278251036    9.82235322579527   14.18658171197599
O        12.17550337378809   10.91967063857164   13.04884598135941
C        12.45787578998868    8.75643231846124   10.26375546802182
H        13.08044120565828    7.90095580447198   10.54296016706595
H        12.29949149130707    8.72726913221450    9.18182294506226
C        11.01920457775749    8.57357505263792   10.89155526377513
O        10.54329712363563    7.45078302918207   10.86199725782567
O        10.48478907846596    9.63323898235945   11.30430550393734
C        13.57853069024060   10.83355224728057    9.51928395182566
C        13.85015609228941   12.19943246951987   10.10666963381197
C        14.89007803064301   13.04688558113980    9.78186374186176
H        15.62626157875199   12.75800413576643    9.04739419564855
C        14.98574188665390   14.27585880521222   10.42212801949511
H        15.79858126767537   14.94877710920336   10.19416539169288
C        14.01719140034073   14.60911996615365   11.36488741427907
H        14.05962764132219   15.55068743591108   11.88938255122779
C        12.99055541880283   13.72755445650302   11.61878233650503
H        12.18859624487093   13.94104377811216   12.30761360955522
N        12.89007619423870   12.54691800479764   10.99730091251333
C        12.35820239114619   11.10363339499988    8.65625931581079
C        12.30381193206921   11.10764798733229    7.27632772707292
H        13.18293833051476   10.89973879279543    6.68606137002835
C        11.09199723901554   11.36185207540000    6.64674318948239
H        11.02623945971154   11.35608002217215    5.56926119112925
C         9.97236321200885   11.60706976804328    7.43617462665267
H         9.01139848578946   11.80025773202893    6.98617747714143
C        10.10148743672004   11.60309309375180    8.80643277728814
H         9.28235118955602   11.81262109133259    9.47599940883207
N        11.27023766991259   11.36766657303782    9.41429835740214
C        14.72248515534286   10.19892729222623    8.71483063634246
H        14.33970159068019    9.29019804200347    8.24214389200013
H        14.98233149237397   10.89639430451160    7.91367494613327
C        16.00231954369203    9.84780969877126    9.47220235286488
H        15.81988512699259    9.01706281633704   10.15271506192635
H        16.33997809527397   10.70050720140124   10.06417218628379
C        17.11347952982397    9.44453160445133    8.50262925529661
H        16.77192831623213    8.60627951564965    7.89007473826179
H        17.33150008676624   10.27771887637394    7.82877562039107
C        18.38522265686840    9.04602999527357    9.24124880089254
H        19.16678566279321    8.76412571903516    8.53858145894301
H        18.19350254076958    8.20158741240465    9.89933046831133
H        18.74838108600115    9.87331136787910    9.84729024062948

