83
CSD_code = SARSUB | q = 0 | S = 0 | Stoichiometry = C38H35N2O6PPd | MND = 4
C         8.90305120775372    3.89188759297880   12.43221918196553
H         8.56656305194643    3.05430196318260   13.03651220087112
C        10.13798696723475    4.45179171866115   12.60474348829423
H        10.81504086562878    4.06898994663535   13.35210624770031
C        10.52182371030179    5.54064482850770   11.79888748857208
C        11.77680563723015    6.16716492994104   11.94299266678246
H        12.44201157828154    5.78746874310799   12.70205226261861
C        12.13686876888077    7.22243608995064   11.14938610520921
C        11.22231535864286    7.69505568927915   10.15005665324965
C        10.00177086624557    7.09612495752106   10.00068581187844
H         9.32012640406159    7.45871065582128    9.25103159606271
C         9.60999427766125    6.00758408111046   10.81557776836908
C         8.35490419604880    5.36185593091360   10.72047092075828
C         7.30200785901063    5.68452059121728    9.69106270543410
H         7.56035496425682    6.54736083482771    9.08215812146891
H         6.35258754947316    5.89203171347335   10.21944725718932
C         7.14871084281649    4.43537286733068    8.83517082318857
C         7.56391298506430    4.43396701378857    7.50743283242095
H         7.95354576189532    5.34455851748824    7.07668346638976
C         7.46679117689176    3.28462818946073    6.74253622206545
C         6.96022620381416    2.11013713577386    7.33246218264755
C         6.56393912859722    2.12587985695787    8.66118585347925
H         6.18104584861923    1.21917536534316    9.10530980530151
C         6.65115142240922    3.28063749687507    9.43195322658044
C        14.25748236805894    7.50386789790021   12.16938572720866
H        13.86356725263921    7.60450747538832   13.18569982206201
H        15.10112139204619    8.17946468360557   12.04040895120256
H        14.58957335821217    6.47327609697820   12.00842405640574
C        10.85179365244751    9.27982102272695    8.42123489724098
H        10.62036810932295    8.54005933944534    7.64768703689213
H        11.41891625567393   10.09684445562452    7.97880968811099
H         9.91990305063916    9.67219890587205    8.84144852720811
C         8.36420226713366    4.31571466093301    4.79710965313584
H         7.64434340819046    5.14221748747112    4.77015121945055
H         8.59201860875626    4.00788903980170    3.77752115275856
H         9.28584837706556    4.65521672569177    5.28418546417409
C         6.39271087097861   -0.18127489381892    7.05025086069381
H         7.00398461114720   -0.54588296895910    7.88337967160097
H         6.42819585067599   -0.90342897244960    6.23565951686073
H         5.35704259920012   -0.07002536888281    7.39160093085767
C         2.91313097527971    3.22403256774410   10.12142301927223
C         3.32990841515798    3.98040772028679    9.03229064713655
H         4.38382906019760    4.21113885489968    8.92542255211740
C         2.40875983213334    4.42648425637182    8.10131387120798
H         2.73767702816955    5.01221941236407    7.25551201458598
C         1.06587799911932    4.12474973616624    8.25654212900339
H         0.34520499200396    4.47387096723220    7.53165281384488
C         0.64361687891095    3.38142134958600    9.34760777245598
H        -0.40506703611816    3.15338356357879    9.47278439674611
C         1.56110327766343    2.93295685886475   10.28010085241589
H         1.23037300485911    2.36645413024329   11.14038657350551
C         3.21474793897012    2.67958436157980   12.86302368033600
C         2.71143114984825    3.91357197791170   13.26874288558834
H         2.86391616554683    4.77930192117485   12.63527624902146
C         2.04619473843558    4.02902078986554   14.47320703100376
H         1.66210576892508    4.98821195235486   14.78790720862022
C         1.88568917036508    2.91550552970129   15.28343833275989
H         1.37199368190814    3.00674258853923   16.22922250901851
C         2.39474839031592    1.69029658450634   14.88812849242418
H         2.27938290217370    0.82570815028403   15.52545552298075
C         3.06346086674327    1.56832022910418   13.68241466263601
H         3.47689999923089    0.61587385457890   13.38210372605528
C         4.35519965036693    0.87089063569152   10.97110083727741
C         3.42701406712349    0.09230308979290   10.29234262904908
H         2.50686829366029    0.53271663053194    9.93571218854401
C         3.69163156842997   -1.24722535409982   10.05977437751200
H         2.97149259811252   -1.85131147412692    9.52697629645707
C         4.87524027658319   -1.81266902141842   10.50427943036245
H         5.07513698481855   -2.85781291674400   10.31860257945704
C         5.80620060135754   -1.03725937858223   11.17962200830159
H         6.73124195286965   -1.47884669497833   11.52006495889056
C         5.55359833009777    0.30315184914335   11.40583461839781
H         6.28088931633778    0.93569729112593   11.92004463576125
N         8.03779338175483    4.35256870756368   11.51445743709293
O        13.30748508511353    7.89515558995988   11.20772612551213
O        11.68186613854435    8.74008012238053    9.41989608506863
O         7.83122846958092    3.18181078040434    5.42580868318412
O         6.89808634774347    1.01413976601235    6.51635912940879
P         4.16610727554519    2.64949433672576   11.31185719414774
Pd        6.18398395180264    3.57768678743827   11.38815469629596
O         5.70817308963646    4.55816855040513   13.37035892158058
O         6.26036868820247    2.55758329433306   13.77953008696817
N         5.92260006747040    3.67046775402861   14.22775807360302

