75
CSD_code = SASBEW | q = 0 | S = 0 | Stoichiometry = C38H28Cl2N2O2P2Pt | MND = 4
Pt       13.22633733241031    9.28409138268388   10.46751864494377
Cl       13.46973178811271   10.88712241307038    8.81513651392062
P        11.82281679289731    7.89111632722381    9.34619419863466
O         9.37058043775871    7.86879596128219    3.93058812340174
N        10.00699817733434    5.93104658136406    8.34996134101634
C        12.29129983935949    6.14404178082695    9.19527763997365
C        13.52683128515017    5.60622457518173    9.50999560224795
H        14.30924453633065    6.24856908620964    9.89302278061602
C        13.73206431387893    4.24644137093232    9.34273383490731
H        14.69027019813730    3.81461208660478    9.58955055307325
C        12.71286502423496    3.43947756883188    8.86442309488298
H        12.87963402507165    2.37963774823378    8.74179869166969
C        11.47665802533991    3.97733454974478    8.53724225679643
H        10.67799019184670    3.35763050250641    8.15987315512676
C        11.26921878355272    5.33303928660499    8.69940334681983
C        10.22426718392143    7.57638155284397   10.14256553377129
C         9.73401911499910    8.23925129865765   11.25391036524860
H        10.33057332107921    9.01255458564972   11.72237466625614
C         8.49158354349003    7.88582943180303   11.75407527868178
H         8.09970572613532    8.39114152209937   12.62394306450628
C         7.75279633984952    6.88461597003994   11.14495271585101
H         6.78710791099604    6.61212961099094   11.54411907578696
C         8.23713013894775    6.22594905720603   10.02401791451996
H         7.66638441441585    5.44773004427227    9.54142413201934
C         9.47448587693200    6.57721800226283    9.52100993362383
C        11.13183835961851    8.00061519682062    7.66714806381460
C        11.38314979105596    8.98115586413046    6.71803375382631
H        12.05040264333191    9.79612936340002    6.95388249445274
C        10.77432568489882    8.90189409157522    5.48342569772892
H        10.95315190454727    9.65048263726057    4.72842042496689
C         9.90965932173865    7.84785870055315    5.17583815754753
C         9.65404656715073    6.86330483665812    6.12876478644115
H         8.99431198006911    6.03253801343407    5.93867420413591
C        10.26592295241518    6.94865065186399    7.36391795838297
C         8.49821805934848    6.83018042034259    3.55350494275337
H         7.60965797028092    6.80028129060381    4.19189514842129
H         8.99866456446534    5.85703805740155    3.57911927147850
H         8.19935778565992    7.05458820238480    2.53088613853924
Cl       12.98027175554529    7.68137680484268   12.11855444047616
P        14.62792726367589   10.67852473338975   11.58732360149003
O        17.08021047638394   10.70072766327876   17.00301634625690
N        16.44378910303615   12.63849748438760   12.58365864618025
C        14.15948880835259   12.42556509279124   11.73836810537204
C        12.92394838466583   12.96333166302276   11.42366865936580
H        12.14154071713160   12.32096831246836   11.04063656909540
C        12.71870413340883   14.32310024832852   11.59093464155002
H        11.76048981208413   14.75490575944984   11.34411669349808
C        13.73789919822809   15.13006566695574   12.06925662040903
H        13.57111223123552   16.18989715651624   12.19189684211672
C        14.97411957851525   14.59222896175079   12.39643434620867
H        15.77278513427665   15.21192805543105   12.77380893464925
C        15.18156964309218   13.23653954249513   12.23424508059622
C        16.22652778627443   10.99316228722370   10.79106101468523
C        16.71675892244399   10.33025064414122    9.67974164325211
H        16.12018040545347    9.55695114191583    9.21128698808389
C        17.95919840139086   10.68364494911795    9.17957747636661
H        18.35107074273438   10.17830637269936    8.30972280618433
C        18.69799940237682   11.68485355857017    9.78869473401402
H        19.66369575394498   11.95731239228113    9.38953267863312
C        18.21367544193538   12.34354953528836   10.90961891313932
H        18.78442618294126   13.12176756325081   11.39220556573284
C        16.97631271473519   11.99231416383497   11.41261735705674
C        15.31889673404867   10.56891012060311   13.26641348765858
C        15.06761927054922    9.58835967386402   14.21556570571616
H        14.40037289572736    8.77337907891964   13.97976452997325
C        15.67645625152699    9.66762500384475   15.45018013800494
H        15.49764059574102    8.91904610838403   16.20520109802865
C        16.54112301177885   10.72165721715625   15.75776626963597
C        16.79672166401783   11.70620219162434   14.80482783357199
H        17.45645776433056   12.53696588628399   14.99492404500822
C        16.18483732457219   11.62087307616125   13.56966728284430
C        17.95257232502219   11.73934191872427   17.38011623582161
H        18.84113653042525   11.76924421551232   16.74173241123972
H        17.45212797085604   12.71248515987438   17.35450050949887
H        18.25143376077583   11.51494097206072   18.40273824779874

