75
CSD_code = SASBAS | q = 0 | S = 0 | Stoichiometry = C38H28Cl2N2O2P2Pt | MND = 4
Pt        2.21985874694194   15.93685839161990    5.74518558800327
Cl        2.35992096985088   15.59943525612474    3.48689737800064
Cl        2.29975106267622   18.21671714394647    5.49047741957649
P         2.20962353211865   13.66938361791290    5.90674286903430
P         2.08934343666605   16.62509411286376    7.91937129744372
O         3.78666658172990   10.48579065207255   10.67268017014407
O         0.09766754333670   21.45547933878764   10.74115466573202
N         1.57349483268166   10.91515143018373    6.35397270954940
N         2.68270459981820   17.46093187488718   10.59228670365731
C         2.78766926835491   12.76915853558376    7.37961930332592
C         3.58682238742806   13.27600908794220    8.39320427189237
H         3.95743347915320   14.29000250804200    8.32841670210222
C         3.90400308764774   12.48327123182909    9.47418685916404
H         4.51708822932734   12.85789165709123   10.27784803490207
C         3.43087977290050   11.17003539956202    9.55796592291434
C         2.65447039929452   10.64689689232641    8.52533326527800
H         2.28736350159714    9.63372663725334    8.53588778312667
C         2.34681320693484   11.44881906008760    7.44319355640680
C         0.50208034527369   13.06789577958186    5.99196283947041
C        -0.61572310033647   13.87237670913583    5.84894744243931
H        -0.48426899477821   14.93513789574883    5.66426113643233
C        -1.87197638838632   13.29687244791677    5.94214118531781
H        -2.75468847656796   13.90806050829936    5.83042055426542
C        -1.99857868961559   11.93620019400870    6.17644511616649
H        -2.98180878696707   11.49536193332817    6.24615443213345
C        -0.87920310491915   11.12824799180216    6.31937920388530
H        -0.97333050667429   10.06829309013559    6.49748827240103
C         0.37491266620738   11.69974130479791    6.22395866080610
C         2.76741773156214   12.36466886747998    4.75808710383977
C         3.54578923193437   12.52493208265520    3.62494484715331
H         3.85898729356840   13.51374089066242    3.32824838930764
C         3.88764269650002   11.41075531158616    2.87440962260155
H         4.49014572468104   11.53152245384519    1.98697559316203
C         3.45960296642230   10.15026940144721    3.25354051706098
H         3.72576828799680    9.28794174742309    2.66070920284784
C         2.69077606898325    9.98287046468069    4.39588301071107
H         2.35528538386803    9.00579755337981    4.70768015886347
C         2.34972090761168   11.08752043429076    5.15077379735199
C         3.35896114016173    9.15085407449541   10.81350468946812
H         3.75986598069207    8.81363609659135   11.76783706072159
H         3.75143330544763    8.51754010198962   10.01205151029181
H         2.26710171611007    9.07956526271169   10.83369081335995
C         1.36472367424783   18.13731172577300    8.62475044626563
C         0.46686097262830   18.99961366603772    8.02427767696670
H         0.13293263985907   18.80881931073363    7.01604141932132
C         0.01760528647546   20.11995310675681    8.70308175920161
H        -0.67546221109285   20.78206396891747    8.20972694268530
C         0.46370049834804   20.38339266776109    9.99485627691400
C         1.35171595864647   19.49667816302118   10.61374434454081
H         1.68478411215470   19.69479800010921   11.61929599948321
C         1.79169262186581   18.38408154756561    9.93682575397241
C         1.62973470183947   15.61899796342571    9.37732608705432
C         0.92602008206368   14.42802172440235    9.36221201689813
H         0.56838037722767   14.02789234446454    8.42358533355384
C         0.68335737328483   13.76377037365702   10.55281553966788
H         0.14107233127790   12.83021896694287   10.54212770241536
C         1.13441069004742   14.29273032134129   11.75048155111211
H         0.95221744495600   13.76490405992553   12.67442612228397
C         1.80266913420895   15.50767800461266   11.77781512479605
H         2.13409305958915   15.94421073986125   12.70702723615801
C         2.03891468877412   16.17494561994047   10.59156775425611
C         3.77765519321847   16.96743292489014    8.47808710040841
C         4.90271056414971   16.85217720801502    7.67862586291256
H         4.79239382348201   16.54355084864058    6.64166647566927
C         6.14305777160644   17.14466740532698    8.22026094389570
H         7.02942857330445   17.06485310313449    7.60930617713177
C         6.24874491025572   17.54350133903490    9.54393331500368
H         7.21968032091144   17.77290440916353    9.95698073837653
C         5.12331180039856   17.65528043297862   10.34788941103489
H         5.19883798925403   17.96615902982344   11.37814418312428
C         3.88471038316487   17.36551240302964    9.80896182085666
C        -0.77483150328899   22.40685881587335   10.17738952313781
H        -0.90356058116825   23.17415645820616   10.93901255752417
H        -1.74843739929041   21.96737793946203    9.93881165547489
H        -0.34761331963556   22.85852998107482    9.27692548758281

