87
CSD_code = SASDIC | q = 0 | S = 0 | Stoichiometry = C28H49ClN8Ru | MND = 6
Ru        5.88285029499864    5.88274523951219    7.79736244716415
H         5.88268781501533    5.88283933032244    6.24397134676358
Cl        5.88248988625127    5.88323468066214   10.27504552533426
N         4.85907139424779    8.69041852449436    7.02033185787584
N         3.59514164779297    7.85573274402108    8.54097143555886
C         4.70456666727937    7.57485161393223    7.79698156368128
C         3.88463472541139    9.63417706973448    7.28565450930100
C         3.08381502756674    9.10407589295353    8.24225709123117
C         5.84758520854984    8.89291123470477    6.00027894701119
H         6.59324052584279    9.63037853761775    6.31066374584804
H         5.37143391918806    9.24260004066602    5.08182663618585
H         6.33886928425745    7.93898650683156    5.81432341827398
C         3.83005366517964   10.94744090306630    6.58909210410281
H         4.78434830664570   11.46796447804295    6.66936793197879
H         3.05870480456828   11.57210609278494    7.03123523768865
H         3.60381670418338   10.82082186057475    5.52916403876935
C         1.87572032888006    9.65601547913159    8.91129874045934
H         1.02814823259713    8.97922775626091    8.80124062255828
H         1.61101636573198   10.61433422586809    8.47261117785569
H         2.05271239668673    9.80194676830898    9.97763149076168
C         2.96770771205281    7.00757021488175    9.51489859568704
H         2.01629791931524    6.61792060132521    9.13911460694822
H         2.78158292545025    7.56583092392228   10.43390718232204
H         3.63249228739492    6.17906163717746    9.74815385497231
N         3.07531164158634    4.85904614389275    7.02003031068541
N         3.90970869603316    3.59513259870133    8.54083954502920
C         4.19076534404526    4.70447621563202    7.79681513018813
C         2.13144419121938    3.88469354827320    7.28528145500232
C         2.66136421464193    3.08389391880593    8.24200243413761
C         2.87298370095684    5.84759879775020    5.99997832879161
H         2.13559236546451    6.59334347898133    6.31035307447114
H         2.52326751108746    5.37150788192048    5.08150380329597
H         3.82697235099245    6.33878090632577    5.81407517954265
C         0.81826073064169    3.83018861440709    6.58856293751200
H         0.29793167244221    4.78461408510132    6.66850921457254
H         0.19337639750119    3.05909271516487    7.03083737199869
H         0.94496307855774    3.60362745928832    5.52871420248432
C         2.10923395140047    1.87590216742345    8.91106376943177
H         2.78586065021714    1.02820047025382    8.80099609995720
H         1.15085185738092    1.61137576499757    8.47240689888123
H         1.96338392892321    2.05293571114858    9.97740131354949
C         4.75770735591778    2.96768638684501    9.51489670743339
H         5.14703968831937    2.01605110355482    9.13935632639371
H         4.19943877880194    2.78200912691404   10.43399290391344
H         5.58643150172696    3.63227751742259    9.74793242832963
N         6.90669399984646    3.07523321609117    7.02013039939669
N         8.17069796641626    3.90978647060051    8.54077096805366
C         7.06131315219703    4.19077352755717    7.79678278672149
C         7.88108875998020    2.13141435047096    7.28537577656276
C         8.68194711856942    2.66143491399241    8.24199137782014
C         5.91785209427599    2.87269968971587    6.00040133470979
H         5.17186991720639    2.13578837569794    6.31135357087983
H         6.39362574118190    2.52227575234628    5.08203659813258
H         5.42699486238824    3.82677761756907    5.81406227525091
C         7.93551732432908    0.81811032969493    6.58887655492605
H         6.98102447999043    0.29791226009657    6.66886884189928
H         8.70651193233214    0.19322218251635    7.03132447572995
H         8.16216996328127    0.94456411410453    5.52902105698266
C         9.88991224610091    2.10933225314526    8.91112700745820
H        10.73778005682998    2.78568966523477    8.80064768996120
H        10.15414479953276    1.15067506507613    8.47290406269172
H         9.71295975003542    1.96405164919498    9.97755568746377
C         8.79798721359599    4.75771005233524    9.51499128749983
H         9.74992109180138    5.14665394288105    9.13980866242774
H         8.98306336560861    4.19952122864253   10.43426461685848
H         8.13357145548482    5.58669332741272    9.74760344243340
N         8.69033099727586    6.90670626447556    7.02000695136775
N         7.85582970580370    8.17062304208855    8.54075066284844
C         7.57483057109876    7.06123222521319    7.79675642578619
C         9.63409047269533    7.88118308157468    7.28515916990417
C         9.10410937641764    8.68199036909358    8.24183626967814
C         8.89288616569076    5.91788030836062    6.00027046946991
H         9.62996323110215    5.17202603743973    6.31112462801312
H         9.24309333408919    6.39370298904780    5.08184725718713
H         7.93885735157962    5.42687756079463    5.81406616836508
C        10.94728608416828    7.93577536368849    6.58846617271961
H        11.46770627929433    6.98140704583516    6.66852185100525
H        11.57207359371029    8.70697481509188    7.03069992684461
H        10.82061236648929    8.16223529701188    5.52859477396272
C         9.65616015166319    9.89001112925945    8.91092271357717
H         8.97962875875786   10.73776408877587    8.80063373961140
H        10.61467521574621   10.15444181807940    8.47250762901435
H         9.80171495332981    9.71303148230457    9.97730870414414
C         7.00797691920191    8.79780818500990    9.51510187832147
H         6.61882877094146    9.74966848738161    9.13994807451707
H         7.56630127356927    8.98302624235612   10.43426689143633
H         6.17911948344402    8.13328721312383    9.74787762443105

