38
CSD_code = SASHOL | q = 0 | S = 0 | Stoichiometry = C13H17ClMoN2O4 | MND = 6
Mo        7.50248469969456    5.40821503687198   16.92864612933525
Cl        8.11967400025153    5.59533081130251   19.27599001623440
N         5.63261878142940    5.38724503601575   17.96706674486031
N         7.21677957226136    3.27887291302847   17.84661506291955
O         9.16645533733238    4.84056361137318   16.58532456078225
O         6.66181796903593    4.58480868834097   15.74611243339399
O         7.52203500805484    7.02503893690036   16.63074717201023
O         3.91583699269814    4.24582074454025   18.80734052100940
C         9.62036036429093    3.59795846106602   16.21991663150800
H        10.68352422993870    3.65686613848762   15.93002638818988
H         9.02394710972961    3.23748342205939   15.35827824074328
C         9.48821912250214    2.60167155006494   17.39582428931781
H        10.05201048631675    1.69321513986416   17.18108907893145
H         9.92087910579392    3.09536013100587   18.27442479765850
C         8.06271950856213    2.26768645507638   17.70675707399397
C         7.63300945880885    0.94742786307905   17.87671752817045
H         8.32959416256490    0.13533549289265   17.73648485647312
C         6.32179350490201    0.69511678075393   18.23797127606910
H         5.97813630552084   -0.31799331977754   18.38238926274198
C         5.45407600908961    1.76304938806063   18.41865541943417
H         4.42656006627163    1.62497012612307   18.71316473884734
C         5.94889484766170    3.04142465944647   18.19577236584854
C         5.14996405776284    4.25364243825982   18.31746035577515
C         3.45594272640312    5.60490452503497   18.78923901945938
H         3.19997406223079    5.89021020168048   19.81187758826315
H         2.56126088010038    5.65021595746823   18.16387473569110
C         4.64247625858588    6.41888246540564   18.21235444736796
H         5.05851728806614    7.10767733185000   18.96079456820842
C         4.36317519993406    7.21949455992565   16.92600398531527
H         5.33227311836608    7.64472298565217   16.63383823213744
C         3.89157070460731    6.32419102052533   15.78225943090360
H         4.66819882760145    5.59550981388909   15.54260424541179
H         3.71852493116540    6.93190594196200   14.89857699086848
H         2.96440382940189    5.80553878758395   16.02124751170529
C         3.37510819872064    8.34784694573050   17.21113134701533
H         2.39950990512761    7.95655071178482   17.49374912453696
H         3.25121294100516    8.95911870257500   16.32192511532543
H         3.73756042820915    8.98501954409857   18.01374871354226

