59
CSD_code = SASHUP | q = 0 | S = 0 | Stoichiometry = C25H20F12SW | MND = 11
W         0.60898257308753    2.84523277749414    3.65644667214509
S         2.62804037932955    4.08972709216681    3.73971850308318
F         2.37834242015089    3.03178107654672    0.70008617459530
F         2.02326716951228    1.02198353283811    0.02498303311335
F         3.81417344217261    1.48600327088790    1.14027811645114
F         0.79967997596208   -1.58881890604740    1.70680374013463
F         2.90119070541248   -1.15470135770813    1.77044753986955
F         1.90617084158459   -1.88864445447785    3.53268657380414
F        -0.72549501330122   -1.09086975621834    4.00511955557293
F        -0.05625861762300   -0.58769912944594    5.99050044187880
F        -1.44455103199693    0.68816535536775    4.95985687490619
F         3.25439922426864    0.01957846680879    6.03282586418123
F         3.81308629240120    2.08829831696245    5.86514042076914
F         3.78229926051834    0.84274995747756    4.12051717746682
C        -0.46515936009024    2.86323908818585    1.55417793969515
C        -0.19026117698020    4.20389381224733    1.93644751818784
C        -0.94591940073824    4.48646703279090    3.10314350660498
C        -1.68023244266266    3.31178260794728    3.43679715426119
C        -1.38627126984198    2.31567299523197    2.47864503793740
C         2.18281412283100    5.82885593311888    4.17753179514240
C         2.33676388469793    5.96736926902756    5.68546159078265
C         3.09240454049622    6.77889284105359    3.41595254732269
C         2.50760615090329    1.72534109011465    1.07110401990445
C         1.75673576032505    1.50763248013309    2.33584505284358
C         1.45682061640932    0.33829304206794    2.90464626035592
C         1.77403806344413   -1.07066156472963    2.48037813917984
C         0.78056180486730    0.73052303955847    4.17918591978563
C        -0.32219847963510   -0.08358156310575    4.77990000732204
C         1.67692687235798    1.50651690701575    5.06263286573859
C         3.11934633858438    1.10978587955896    5.25354311525308
C         0.98998754127242    2.11403114793417    6.22454135518653
C         1.40766758942423    1.92777768029586    7.64465613291777
C         0.01721550969835    2.91282768265410    5.70504325287671
C        -0.99379194131237    3.58305162589273    6.51382942246954
C        -1.80873478290959    2.82858325322714    7.36490996450004
C        -2.80233382627346    3.43562445474383    8.10780658397633
C        -2.99783319029351    4.80523535026432    8.03001694479343
C        -2.18986069562024    5.56602014408594    7.20084682760598
C        -1.20382032932936    4.96248689150693    6.44451013638064
H        -0.17635193974518    2.40828393547637    0.61606393385405
H         0.36912050787286    4.91732947503772    1.34254912802197
H        -1.13286365169256    5.46981492994021    3.51444611155011
H        -2.45302388640552    3.24533374174150    4.18944391000670
H        -1.88022526010477    1.35833198526925    2.38543360197187
H         1.13942476178334    5.98022612022791    3.88137301325179
H         2.00208870123694    6.94944570690392    6.01414046655942
H         3.38131207352339    5.84291655957668    5.95966852372219
H         1.75687065463370    5.20108763534496    6.20006799029683
H         4.12969859807273    6.58199415245917    3.67357171281231
H         2.85626873876551    7.81025136342566    3.67024833728463
H         2.97552683433353    6.64414168513847    2.34357256339482
H         2.42436594237831    2.28469387974401    7.80325546734328
H         1.38926853236566    0.86597207981218    7.89072977502744
H         0.73668358857261    2.46833212864670    8.30760062008670
H        -1.66387236178618    1.76070947413963    7.42120054555796
H        -3.42609016588650    2.83686106784218    8.75444852919960
H        -3.77224010440368    5.27762309335735    8.61483389132020
H        -2.32957641216825    6.63558273065751    7.14363371181406
H        -0.56358467245862    5.56582089178428    5.81625438792990

