77
CSD_code = SASJUR | q = 0 | S = 0 | Stoichiometry = C35H34NO5PPd | MND = 4
Pd        4.92865314956324    0.79081649788411    1.31484469799510
P         3.38465491842719   -0.65828063724334    1.95015328817486
O         5.98792580696970   -0.16113281961353    2.96565557442939
O         3.31740257972580   -4.46555506492087    1.81271719840549
O         1.52938960271570   -3.68442153752004    2.93081741826829
O         2.73046666317872   -5.47795864434935    4.62321699161830
O         3.61668808314144   -4.90828790964328    6.61125327568147
N         6.49741596674481    2.11667089263129    0.83539988659386
C         5.53807976473803   -1.26843199310573    3.38956025387083
C         6.47997181750953   -2.09955135822969    4.18833670290506
C         7.16391336322356   -1.53457211100882    5.25817328225210
C         8.07206664760350   -2.28803090193773    5.98047076593063
C         8.31865478915932   -3.60281459917464    5.62527821981247
C         7.65948647540688   -4.16130145712255    4.54132041622085
C         6.74421991949165   -3.41644850470947    3.82249814362556
C         4.27025715692717   -1.76855397428206    3.06207435823293
C         3.66979575556864   -2.94559793405049    3.60953627011153
C         3.87249578301976   -3.40710013641020    4.86922860213277
C         3.34259365915255   -4.68106869012447    5.30517489431917
C         3.14718828959145   -6.13919953084967    7.12951040421348
C         2.83928545160049   -3.79659115207322    2.69087169021163
C         0.69790697565863   -4.62216059883184    2.26220248232550
C         2.54296606337670   -1.62558542699707    0.67422881158902
C         3.40521664852375   -2.15582038673922   -0.28321182623964
C         2.90089219950616   -2.88548667549196   -1.33938010776253
C         1.52999550332842   -3.06618452295273   -1.45534212877462
C         0.67028667461390   -2.51057296927467   -0.52290504263542
C         1.17148534006277   -1.78478964424382    0.54545551699962
C         2.14582113256550    0.16483371435624    3.00197907791212
C         1.19748772386141   -0.51940847809515    3.75585835164253
C         0.34464514232697    0.18675253429501    4.58615305685273
C         0.44214736404827    1.56599798790190    4.68043171235017
C         1.40440449938012    2.24775730373955    3.95184694815212
C         2.25789980076772    1.54942987751517    3.11759231927354
C         4.03669366224205    1.68700634240276   -0.21378226413074
C         2.69062335567117    1.65555022010107   -0.55913729464008
C         2.20052961476754    2.43779231416985   -1.59476716152108
C         3.04779524431599    3.27700665507182   -2.29587617264137
C         4.38999630401914    3.33162609823696   -1.96170280224628
C         4.88278695356029    2.54454995438839   -0.93173865746982
C         6.34729355262256    2.54533799256013   -0.56343812693717
C         6.24653728038481    3.23389320567109    1.74643263579021
C         7.81515514139020    1.54425649492814    1.08946800608177
H         6.96703242048537   -0.50650014237266    5.52670935490751
H         8.58992031944182   -1.84696809523033    6.82007361386791
H         9.02827060057984   -4.19111227341452    6.18868191403476
H         7.86035756456404   -5.18311874499498    4.25484747883852
H         6.22996753125262   -3.84908448891184    2.97724582641628
H         4.45809394800325   -2.85690630653938    5.58775423837510
H         3.52929230030029   -6.97310417396240    6.53600434333985
H         3.51098904904712   -6.19891956824413    8.15237561598934
H         2.05486134295153   -6.17030672635432    7.11038331897734
H         0.96558662367075   -4.68079926841523    1.20549428844848
H        -0.32457630311817   -4.27302491515144    2.38479232206227
H         0.83242924013360   -5.60054478819932    2.72708846581218
H         4.47419984704493   -1.97613257607484   -0.17506829388175
H         3.56610838573702   -3.31159187342254   -2.07537615533921
H         1.13062088837259   -3.63773816259578   -2.28036195211823
H        -0.39717854661164   -2.64449694330938   -0.62613015861873
H         0.50294184509579   -1.34887370511011    1.27441419694000
H         1.13972896724019   -1.59680097261688    3.70003561017791
H        -0.39552835670304   -0.34220358663197    5.16862383627120
H        -0.22640626076304    2.11006308805203    5.33140143888751
H         1.48745896689616    3.32139879994294    4.03874992902235
H         3.03048561584881    2.06677162238570    2.53610726729864
H         2.00638240039220    1.00727955517715   -0.02108695643031
H         1.15194839688581    2.39200396580838   -1.85176757934004
H         2.66665755028955    3.88973342669204   -3.09958622107704
H         5.05801871496521    3.98736891670943   -2.50410798152916
H         6.81013517627503    3.53190825845319   -0.72303936306535
H         6.86767698575053    1.82312915726660   -1.20489933512027
H         5.28701830672706    3.70039168801923    1.50001761184726
H         6.21541624416815    2.86457660938753    2.77820466307244
H         7.03808651471521    3.99425925395716    1.66615688780371
H         8.61177971199866    2.28083172671715    0.90973662460938
H         7.97274238012201    0.68145158300150    0.43705901870104
H         7.86950980816954    1.20408923304591    2.12590646215262

