50
CSD_code = SASJUS | q = 0 | S = 0 | Stoichiometry = C13H27CoN4O5 | MND = 6
Co        2.08095808083747    6.70558913000345    7.59554067907925
N         2.56104566092702    7.95207894948033    8.94167806628483
O         2.52525478901104    9.28789961163134    8.81142950741225
O         1.56318506106040    9.23215302430935    6.51388288716969
O        -0.00316828692149    6.70563047654188    8.42405358382919
N         1.52586992049620    7.94629059870544    6.32018492100998
C         3.22849182161781    8.22081057628675   11.29387891008597
H         3.15446896501571    9.28134040107114   11.06762779239071
H         4.24490087211576    7.99237520995518   11.61062010089793
H         2.55433681718479    7.98006032203421   12.11395712696546
C         2.87636548496736    7.43002071671825   10.07775991268035
C         0.50124154650392    8.24078899477960    4.10275487840189
H         0.60830150321658    9.29446629481065    4.35079895412664
H        -0.54939031636349    8.01776090875108    3.92078144497682
H         1.05735880276583    8.02881674172845    3.19113922387165
C         1.03300803440594    7.42514544862811    5.23699514037632
C         3.90578981434757    6.70556396306355    6.78672309813689
H         3.96845710795587    7.58969218891802    6.14829675783565
C         5.10366645064727    6.70558658055181    7.72080649699613
H         5.10251304835795    5.82027029507392    8.35855565920708
C         6.40304751851585    6.70560029459268    6.90383763187349
H         6.42517493611662    7.58783794717490    6.26072816082090
C         7.63684102349007    6.70563136199167    7.80302678451050
H         7.61376983749326    5.82355642349147    8.44711427672117
C         8.92660833335716    6.70566031131105    6.99132421126472
H         9.79350726308540    6.70568052325030    7.64824248771161
H         8.97697931502286    5.82397367115837    6.35622264240334
H         2.15404546753786    9.43060913813612    7.81744518908748
H        -0.48664760210628    7.48458145920085    8.13160401188808
N         2.56101357870071    5.45909281224194    8.94168526316291
O         2.52518397812652    4.12327250763039    8.81144565476103
O         1.56310815879328    4.17903214065707    6.51390349581227
N         1.52583437467802    5.46489393182656    6.32019532072920
C         3.22844446291796    5.19035521235873   11.29388942512474
H         3.15439325190976    4.12982639634930   11.06764244750412
H         4.24485835894735    5.41876355198042   11.61063452268007
H         2.55429206509496    5.43112738884372   12.11396341721357
C         2.87634469733911    5.98114874534272   10.07776519863946
C         0.50118547701477    5.17040748970195    4.10277376325559
H         0.60821356792876    4.11672928938618    4.35082776057207
H        -0.54944021663755    5.39346698879288    3.92080350224516
H         1.05730501091810    5.38235327239218    3.19115339971332
C         1.03298269530059    5.98604520074825    5.23700419456966
H         3.96845400360104    5.82140431752388    6.14834004453439
H         5.10249226207232    7.59091284693040    8.35854144984485
H         6.42520635135058    5.82335253817430    6.26074324600429
H         7.61372818540545    7.58770891380945    8.44710927057667
H         8.97693885210921    7.58734892146050    6.35622212246111
H         2.15397795281139    3.98056800846877    7.81745971404737
H        -0.48669833904500    5.92671796203040    8.13158624853194

