62
CSD_code = SASJAX | q = 0 | S = 0 | Stoichiometry = C26H18F12O4SW | MND = 10
W         3.10744729756317    0.93381824361524    2.91827028863760
S         1.79032913039586    1.68518594574850    1.10396267728811
F         2.70413143968461   -1.54545734909594   -0.47770573632357
F         4.70289817018541   -2.03958231912744    0.17072320917657
F         4.18179576979141    0.01017884128041   -0.22920320160969
F         2.73253817812277   -3.82807662490576    1.51321357445017
F         4.42613300543461   -3.68236148555988    2.82526160430430
F         2.44335155623767   -3.84693498343857    3.64464326836673
F        -0.29199546877934    0.91539537801143    6.49959283716342
F        -1.29552822459893    1.62824114863316    4.73651910274357
F        -1.03668484690063   -0.48572137413557    5.06022830564557
F         0.72608082674719    3.32382948632439    5.80935597368807
F         2.73884163516690    3.73599206079231    5.19693071859628
F         2.37886426332077    2.31823170822214    6.77275389447618
O         3.96713353588687   -1.79223317635004    5.53310005426274
O         1.90736680206878   -1.07111685562598    6.08039846360624
O        -0.70120704869159   -0.17201689424327    2.20540284859670
O         0.50046794532045   -2.07370600026341    2.18466490026636
C         3.70618984091250   -1.14949405385810    0.31231814175390
C         3.28848394149798   -0.88412999154923    1.71468868004303
C         3.15241268695026   -3.28345166974923    2.66306273710053
C         3.03844231538726   -1.78275910006110    2.66673261516248
C         2.18076060303723   -1.32913271338108    7.45412239521013
C         2.88886051001981   -1.34167653077944    5.21600573283398
C         2.53594756007618   -0.98196063849508    3.82342585962399
C        -0.41870009815105   -2.64072495500952    1.25487929144255
C         0.25240788051433   -0.81852321995219    2.56433980762759
C         1.30204356233303   -0.27015692495388    3.46787392854935
C        -0.43895795160666    0.70162537210671    5.17992012455727
C         0.89305431104530    0.74352236549725    4.46613702528287
C         1.90334213529076    2.73375024685262    5.58183334073654
C         1.90295411430177    1.62828881089490    4.57763380322851
C         5.39491454575151    0.62605732375570    2.45060503057639
C         5.24775665375557    0.54357429958017    3.85653937506626
C         4.77794058407864    1.79927212409634    4.31014011874250
C         4.64865362373463    2.66841585927549    3.18858789272229
C         5.02319999994111    1.93891093870844    2.03507546815475
C         2.22488015807650    3.39580685503853    1.27217638537273
C         3.02162271070664    4.03497578620473    0.32588147515392
C         3.34260771258283    5.36702275743665    0.49560272641283
C         2.86012272594204    6.09193798360049    1.58384837934443
C         2.02345987561573    5.45320703355633    2.49258857101586
C         1.70285690885437    4.11653160339870    2.34271291357223
C         3.21205277139639    7.53682884754705    1.74151343811582
H         1.24942922178391   -1.14253348039286    7.98113642708743
H         2.96290801935400   -0.65710809482292    7.81205806601591
H         2.50537669454918   -2.36260417098166    7.58344734079468
H        -0.12172844113950   -3.67928014132712    1.14006138346341
H        -0.35129633345260   -2.11471456413836    0.30115771376424
H        -1.43611498687375   -2.56183840629585    1.64052896279077
H         5.90042010502553   -0.10610690139342    1.83292369329823
H         5.55439089687702   -0.28769885612710    4.47949273770998
H         4.72363582525154    2.10113020698107    5.34747789169758
H         4.47345991040811    3.73543383155636    3.23845569507287
H         5.17900766947514    2.34655106381652    1.04342013279350
H         3.37932102752153    3.47997293362848   -0.52798446715416
H         3.97059451700919    5.85980227379791   -0.23187082405619
H         1.61508754465065    6.00409965579761    3.32597225182640
H         1.00851732103129    3.63478220836733    3.01985752181356
H         2.93303707123794    7.90141122796850    2.72605199870026
H         2.68664831044790    8.13068376565333    0.99402753787809
H         4.27933197784621    7.69113328826773    1.59502789575395

