47
CSD_code = SASKED | q = 0 | S = 0 | Stoichiometry = C12H24BrCoN4O5 | MND = 6
Co       -1.36684374977513    1.42628985294480    7.01552140148067
Br        2.19138367467111    7.31613463205708    9.16084128612661
C        -2.13816768061382    2.54232772675275    3.08113943940503
H        -1.93833563525383    3.58053867056618    2.82226572441211
H        -3.12488682980563    2.27842362207754    2.70164181554833
H        -1.39395519215924    1.90530285496168    2.60783661034761
C        -2.05818163093440    2.34328096799193    4.56118488627724
C        -2.87051194178890    3.07534253276079    5.49551996726858
C        -3.86305202191148    4.09876171626330    5.05414206545540
H        -4.41960814956604    4.46340307349105    5.91349532448724
H        -4.55212220748316    3.67453645263966    4.32621034989821
H        -3.34774427752806    4.93382590852502    4.58197716470651
C        -0.84675738034609    0.08595879001519   10.89674584750533
H        -1.55109961109799    0.76352100718499   11.37431993898166
H         0.13940514559973    0.22862819015556   11.33619587764949
H        -1.15844635588121   -0.94118682559961   11.07893091875712
C        -0.82045478149039    0.38250131294639    9.43151884461288
C        -0.00764142722842   -0.35493551063454    8.49931611780196
C         0.87572600043679   -1.47684283182037    8.93068816656445
H         1.40781777791379   -1.87420458711934    8.07069731554030
H         0.28307010661610   -2.26833571419399    9.38613830851545
H         1.59374308954114   -1.12478527841555    9.66912628688051
C         0.08400174873017    2.77222421686134    7.20666995839135
H         0.89632356112438    2.29485667979303    7.76134233160728
H         0.45500163196403    3.00159942486112    6.20499279383668
C        -0.28202166492722    4.06698169716017    7.91398356482265
H        -0.73561868435296    3.86153521063113    8.88468708854144
H        -0.99405040451553    4.64518358380839    7.32296064976782
C         0.97294782465152    4.92188882706048    8.13728749309244
H         1.70172245734146    4.35879027087086    8.72482024215943
H         1.43203682117613    5.16090865569788    7.17498356351327
C         0.61145404619932    6.20086079437508    8.86580922593479
H         0.19490477175369    5.99804148688534    9.85144670854750
H        -0.08536976780189    6.81040615821853    8.29193715403446
N        -1.25952960667031    1.48125960106345    5.12562594471905
N        -2.66779975330148    2.75410458882775    6.73183448539946
N        -1.52864238119676    1.32399317414693    8.88150513765980
N        -0.11826900015471    0.04652363939289    7.27767904350171
O        -0.50119318991785    0.70614776618357    4.42852699718656
H         0.27988339193527   -0.12148736700065    5.42876907543560
O        -3.40654819217161    3.35756464846477    7.69982843123255
O        -2.32565627161840    2.06785640276969    9.56925014009678
H        -3.04840047811636    2.93305444115910    8.58437177978325
O         0.59559234545698   -0.57592730078745    6.30688907710875
O        -2.92054302200911   -0.15681013308834    6.83675790308956
H        -3.82438555923401    0.14172195062621    6.97341267571880
H        -2.87817754625529   -0.62206498153926    5.99577487659458

