66
CSD_code = SASKIG | q = 0 | S = 0 | Stoichiometry = C20H41P4Rh | MND = 5
Rh        2.16351935388938    2.72723546165062    3.41041999205380
P         0.72407575293768    1.06023574466351    2.92605089484335
P         3.24449987295993    1.74940611420287    5.25718838824339
P         0.62737582193028    4.44277175299581    3.82876693706212
P         3.36147566822055    2.79090271729101    1.38773155428088
C         3.40851900174528    4.18738067272908    3.83771778864197
C         4.18420736091112    5.08497367741370    4.10446541725517
C         5.09042283157839    6.12115822034764    4.42311352428691
C         5.54860775241630    6.28536619434174    5.73411823161548
C         6.43476644117090    7.29687342755756    6.04405866900752
C         6.88206976327254    8.16260835581153    5.05824248836134
C         6.43537991667979    8.00815654863755    3.75523289238464
C         5.54893765506012    6.99950569988973    3.43660337894952
C        -0.36592105245168    1.22125524921096    1.45097528814654
C         1.38588537507454   -0.62403784596399    2.58858823292071
C        -0.55969241468559    0.60545434104393    4.16532457784570
C         3.03213497899141    0.02972186154933    5.90653518742008
C         3.00372267240134    2.65451609062385    6.84219116196785
C         5.08495707628061    1.76025866563500    5.22888895438301
C         0.79563317154717    5.91545418246665    2.73694462402258
C         0.79022785521853    5.30385603929462    5.44785779669838
C        -1.21914114720302    4.32356370313740    3.81194398283839
C         3.37859508869769    4.41554222453296    0.52290072202409
C         3.12532614727742    1.72704427830139   -0.10774803121127
C         5.18005979909243    2.56893554012830    1.56534471905027
H         5.20105965215522    5.60805630313534    6.50323659483794
H         6.78168324705116    7.41356617082175    7.06185747815565
H         7.57611715304287    8.95346131991048    5.30413042166420
H         6.78293026397450    8.68095104511757    2.98294882676277
H         5.20252410343265    6.87913100688644    2.41851123310616
H        -0.89739491707080    2.16995409107340    1.49698460133492
H        -1.08217498576958    0.40073817257384    1.40710443166709
H         0.25007706503026    1.21566212125140    0.55416674555175
H         0.59030640507157   -1.29379723206135    2.26238008803721
H         1.84255888975119   -1.01493351042668    3.49492822360366
H         2.15049749237457   -0.56135456055228    1.81683320825394
H        -1.08593221706916   -0.30019975758671    3.86434524691244
H        -0.08726380797563    0.45056002918980    5.13358182104260
H        -1.26936354848875    1.42457229441664    4.25703305076637
H         1.97882792057520   -0.17487459949967    6.08948731732169
H         3.40531837916712   -0.67863980043217    5.16845347708854
H         3.58848037920760   -0.09668463114647    6.83480621703843
H         3.24270562346651    3.70176096033340    6.66991605547734
H         1.95967854275322    2.57873976206520    7.14237641346312
H         3.64187909008364    2.25047185161224    7.62785691228308
H         5.43337900575331    1.10104927128301    4.43577108871242
H         5.48975738329819    1.42742119529165    6.18439354296839
H         5.42060181369730    2.77274039874371    5.01510702276355
H         1.83217017066618    6.24433072719037    2.77098403447772
H         0.14037522256291    6.72251797369409    3.06380329617190
H         0.54883180772575    5.63409788759666    1.71451314683708
H         0.12886542635258    6.16863273630904    5.49569557712746
H         1.82398217572748    5.62248590556110    5.56378496302413
H         0.54274218637020    4.60989431696869    6.24929916687920
H        -1.66290341486571    5.30612184469840    3.96986186023191
H        -1.54425772114697    3.65429678918603    4.60675402983319
H        -1.55901369836133    3.92716733214442    2.85692695547987
H         4.08763160549269    4.41110900680698   -0.30466560571053
H         2.37954418288243    4.63176511526872    0.14801282438394
H         3.65482031070806    5.17976912721607    1.24568873702212
H         3.87337870034816    1.96531672982111   -0.86331303931995
H         3.21615659835927    0.67749416577840    0.16621297364914
H         2.13334833232912    1.89727090375491   -0.52258550533498
H         5.38398813331098    1.55026642247207    1.89145224948744
H         5.69252964246671    2.76084014256266    0.62288610238141
H         5.53421266255613    3.25913205342292    2.32832084147228

