53
CSD_code = SASLEE | q = 0 | S = 0 | Stoichiometry = C22H20FeN8O2 | MND = 6
Fe       13.70432630046609    7.61395866894946    3.07984859414066
O        14.37223262850632    4.93292537323236    3.11039930376844
O        14.37387964347720   10.29462397255592    3.04952349119453
N        13.59248949120613    5.78490746873295    2.61078247277471
N        12.25443919250496    7.77422673469956    1.72624467224082
N        10.84581441287612    6.63998304652038    0.45789632740754
N        13.59341387241559    9.44312628145632    3.54881950023809
N        12.25409159665390    7.45457218793846    4.43335733290677
N        10.84488371001011    8.58991828889867    5.70008444979257
N        15.10026711951625    7.31128680735296    4.32653945002998
N        15.10033850262221    7.91658002824015    1.83315758832687
C        12.63562048691627    5.44780595827734    1.77612461882811
C        11.90018659833756    6.55725012047161    1.30709789749117
C        10.19528287908328    5.54193865363013   -0.19608946264141
C        10.52991825339677    7.97450767000697    0.34578889732565
C        11.40686740314549    8.65507548155560    1.13520212132217
C        12.63622715653367    9.78085414683207    4.38286664695142
C        11.90001555376374    8.67185813483963    4.85175517910574
C        10.19428847989372    9.68851981316704    6.35307431119512
C        10.52830531303031    7.25557770020120    5.81242778005929
C        11.40561680198840    6.57433194234802    5.02400118231747
C        15.06033953826280    6.95548663346908    5.60024759405812
C        16.20219697837030    6.73188112996282    6.36599087467698
C        17.45304535731009    6.88333638661123    5.80573847348173
C        17.53567945617133    7.25012297355504    4.45415318098343
C        16.32197693521010    7.43890274575925    3.76473646791950
C        18.75115532319041    7.43910851900140    3.73586921259838
C        18.75117727528410    7.79122898153290    2.42463027305546
C        17.53573636823070    7.97909086496384    1.70602418639088
C        17.45317696168284    8.34573520785079    0.35441421268715
C        16.20236087210616    8.49648068567352   -0.20609378540589
C        15.06048452305310    8.27227965051413    0.55942251644038
C        16.32200949926208    7.78960904490620    2.39519674093509
H        12.45854335419685    4.42580355304126    1.46810439939097
H        10.88562234648303    5.03590601020519   -0.87529593874102
H         9.34616132133780    5.91448612039871   -0.76629767054576
H         9.84073474741034    4.81751340455418    0.53999040475951
H         9.72495066518641    8.31163032309850   -0.27421075843924
H        11.49154512447295    9.70834428195272    1.30900937347385
H        12.45946849286607   10.80300429132823    4.69059961034825
H        10.88426158160406   10.19446833700071    7.03271122126679
H         9.34447713614018    9.31658665476179    6.92267316811784
H         9.84074251958855   10.41284560745782    5.61639889985019
H         9.72265670340334    6.91904977937782    6.43186273185981
H        11.48994122591585    5.52096292209028    4.85064351047569
H        14.07894972678149    6.83246013441686    6.03166027978268
H        16.09467611553901    6.43772295208731    7.39889804261174
H        18.35129980675635    6.71928375511490    6.38202993849818
H        19.68196964885956    7.29485384586546    4.26560004871109
H        19.68200075444928    7.93556246370603    1.89500011280860
H        18.35146077226630    8.51068862090462   -0.22160428284401
H        16.09486277873750    8.79064890157510   -1.23900382472644
H        14.07913069352620    8.39448673735659    0.12769843074623

