37
CSD_code = SASMEE | q = 0 | S = 0 | Stoichiometry = C14H21ORe | MND = 10
Re        0.42124459552439    0.88072489164366    2.97047036463464
O         2.25283208297887    1.08228777227040    0.51333645450905
C         1.59561541465858    0.98988086346458    1.45801366959773
C        -0.32166556574966    3.02358345943523    2.98515214968699
C        -1.22945235389728    2.38144859519251    2.04510504807024
C        -2.15323501747363    1.61374793808715    2.79006813749337
C        -1.86009481449244    1.76027258982385    4.17753252504177
C        -0.76827285796091    2.63609778920829    4.31965044593567
C        -0.44770498528235   -1.10371456163056    2.18359209642339
C         0.51008527325717   -1.49554393821716    3.13485472400106
C         0.42811265257825   -0.96614334922138    4.43340708428381
C         0.43523630820633    4.28942697749667    2.68842817995057
C        -1.35270195672079    2.72677645382510    0.59332795424212
C        -3.34113764596648    0.90574488573017    2.22740463021828
C        -2.66333246302549    1.17246470586537    5.29307530624887
C        -0.28240353438566    3.24472449902862    5.59508326811298
H         1.71372118227346    1.21419712849828    3.86042254149492
H         0.88011628521324    4.24654950715697    1.69757072905962
H         1.23243072535211    4.43966752165168    3.41147895752423
H        -0.24291328611636    5.14341610181900    2.73203287028128
H        -1.74973528898420    1.89146210730560    0.01966566327058
H        -0.38578319355308    2.99832373412372    0.17658626241073
H        -2.03071180111023    3.57456028182422    0.47339718786917
H        -4.17616171361270    1.60574837179763    2.14713438374191
H        -3.66485981811552    0.08193073158915    2.86430065230851
H        -3.13718787820255    0.51760593837088    1.22999328645207
H        -3.04427368603947    0.18190327844420    5.03904242295939
H        -3.52407854916290    1.80938561427715    5.50886753089318
H        -2.07173305403214    1.09078293633339    6.20408378740163
H        -0.87611544730893    4.13230732018885    5.82473660023825
H         0.75960311907017    3.54178909404478    5.50825570631716
H        -0.37377789070782    2.55130420912453    6.42912072493337
H        -0.35615288531030   -1.47789558423636    1.17129409424290
H        -1.47463876943883   -0.98353088284447    2.51380660176632
H         1.40261847476618   -2.03621564185164    2.82677229678090
H        -0.55319338589631   -0.77810804868156    4.86291422165665
H         1.18520172866975   -1.23336329093825    5.15812143994736

