37
CSD_code = SASMAA | q = 0 | S = 0 | Stoichiometry = C14H21ORe | MND = 10
Re       -0.58184177016075    3.51621761904203    3.89996379593078
O        -2.58928972718220    2.32196148977566    5.89172967072007
C        -1.83415123637216    2.80595317316607    5.16404218848715
C         1.33953652795447    2.61042233001890    4.71821805469766
C         0.81426885570433    1.53545342070718    3.88306603846974
C         1.06001552007514    1.87357911426779    2.54234923193005
C         1.78500640057742    3.11598248382330    2.50066333891621
C         2.00929401835307    3.54926755435359    3.80408477908706
C        -2.18060636903313    2.84346784378072    2.11987294831610
C        -1.41797110371059    3.95941856263160    1.84620190304947
C        -1.54444086615979    5.13847601218114    2.64826195614208
C         1.77976872400358    2.41226719198328    6.14309840616698
C         0.35119198228138    0.20417712236725    4.39267345930292
C         0.78183523039830    1.01866556318097    1.35214101210579
C         2.31966879598005    3.75721622946085    1.26000352246607
C         2.88153262424378    4.68117113638416    4.23399856544431
H        -0.37164018546545    4.74474352903691    4.90543408180295
H         1.91946467305144    3.37055075372240    6.63581986463324
H         2.72381147917749    1.86539180312829    6.16606543104022
H         1.03460387584657    1.85011667868575    6.69939673731722
H         1.20337047270806   -0.47361618429711    4.47434200126589
H        -0.10383154978815    0.30540664582981    5.37469183935681
H        -0.37962031265269   -0.24868437699089    3.72549504527725
H         0.41340740001287    1.60180785820940    0.50602505086629
H         0.05156712111199    0.24529389921605    1.58396571266987
H         1.70333653304360    0.52681061890028    1.03207764759292
H         2.28210600318019    4.84478638913663    1.33018797669129
H         3.36314062964375    3.47044834920600    1.11188223232333
H         1.76423120589525    3.44823709009190    0.37478060161371
H         2.51377083461988    5.12460467524597    5.15609168881808
H         3.89419754413083    4.31253678118888    4.41097575364755
H         2.93215311725031    5.45518480570755    3.47070301528123
H        -3.13871544077169    2.93882909318274    2.61826706302704
H        -2.03592720100611    1.93049137772164    1.55904348932618
H        -0.63582347532520    3.91169152401021    1.08952922478931
H        -0.93758296590637    5.99230020536875    2.35719461828907
H        -2.54623736570964    5.42677163657475    2.96386205313817

