26
CSD_code = SASRIQ | q = 0 | S = 0 | Stoichiometry = C12H8AuCl3N2 | MND = 4
C         3.20872678020345    4.74466976520579   -1.30916409464301
H         3.56293957327156    3.89500637485281   -1.87260495406627
C         2.61563060545298    5.79627099379242   -1.96550045323746
H         2.49904461172296    5.78687979556916   -3.03772407387402
C         2.16178477041842    6.88824124914109   -1.21514749767765
H         1.68901716803223    7.73413849731718   -1.69612249637477
C         2.95608599895340    6.05987315265727    2.15907292306885
H         2.56965204415708    6.95836056156901    2.61329494102677
C         3.52074012258201    5.07588640309047    2.89778803694712
H         3.59989469971328    5.16458941407479    3.97180579125763
C         5.06228429986967    1.83423678352017    2.50539770546327
H         5.49719985482345    1.10875285886287    3.17599672535697
C         5.02908901763026    1.61237219249145    1.13487057946051
H         5.43924898121588    0.70032161804692    0.73326287506615
C         4.46677788272780    2.56764413350789    0.31901561384884
H         4.43292751087421    2.40386203812065   -0.74641014036621
C         2.84929750528087    5.94542943052259    0.74293684547057
C         4.02306776068467    3.89751432995435    2.28463596461636
C         3.94623293520042    3.74363448231679    0.87388269603826
C         3.34439851851963    4.78949125492825    0.08933449398055
N         2.27459266336305    6.96024591571043    0.08465890554442
N         4.57413431784083    2.93213836009666    3.04944895975655
Cl        2.45143822369793    2.42967879849980    5.14171964112279
Cl        4.72541603887768    3.23044301231835    7.31822852704128
Cl        6.83131803383865    3.72646055722908    4.89663061605522
Au        4.64336008104712    3.09155802660326    5.10329186911622

