59
CSD_code = SASROW | q = 1 | S = 0 | Stoichiometry = C23H29BrN5Pd(1+) | MND = 4
Pd       -2.32445798962631    1.19193991731336    5.51533725776404
Br       -0.32029853197242    2.24743692020440    4.98850150455509
N        -0.96917298121789    0.47543321311145    8.37927954752817
N        -2.97415652218136   -0.18027965119128    7.90710284500819
N        -4.00605974271512    0.30418266428147    5.95710409895770
N        -4.64686329310624    0.99603482612368    3.90462515999112
N        -3.34838089462610    2.08911694042509    2.56597842920595
C        -1.88583771243723    0.50556054838534    7.40916197549986
C        -1.45009411595170   -0.20634842714284    9.46715632401151
H        -0.87798374519351   -0.35242213419697   10.35848896836610
C        -2.70414564532808   -0.62447103405643    9.17820137818063
H        -3.39970993907894   -1.18568859075550    9.76572554914942
C        -4.12667799223278   -0.30159165728267    7.14044111444005
C        -5.30466664292873   -0.94795539162395    7.48966112866573
H        -5.41162706045728   -1.44170289601642    8.44018605911327
C        -6.34611859674045   -0.93757442477345    6.57012721114947
H        -7.27367870786319   -1.43014018687842    6.81301542770295
C        -6.20997691650806   -0.30208888104311    5.34216161040655
H        -7.01825997229848   -0.29441813601378    4.63128653673708
C        -4.99952468790645    0.31901394922292    5.06568597794107
C        -5.36104927986353    1.20994068985517    2.75132065240674
H        -6.36671013769168    0.87392863887758    2.61092120563369
C        -4.54015397453840    1.89032382260889    1.91812493208215
H        -4.72638542626757    2.24405771070896    0.92649462990123
C        -3.38887907370483    1.54942204500168    3.78638508966188
C         0.30100507696795    1.18262546572176    8.30245070031736
H         0.65872004433372    1.08394057540721    7.27135219683599
C         0.06624688917751    2.66933966295422    8.59253930126892
H        -0.27626198334542    2.79202287436238    9.62306931605029
H        -0.71032455540093    3.05231959319815    7.92135908314212
C         1.36817578806913    3.43402133989773    8.37650030042215
H         1.65413270177237    3.35471808846548    7.32661904514974
H         1.21134173107896    4.48837317292139    8.60379147732817
C         2.47560397392995    2.86931818703200    9.26108075819799
H         2.22029203613549    3.02488416191254   10.31170665973329
H         3.40727375566289    3.39877203350232    9.06367598405786
C         2.66790995569952    1.37824080901839    9.00053805898255
H         3.44275538988387    0.98182738346918    9.65717702635462
H         2.98972019252449    1.22699741191923    7.96895537841130
C         1.36090528673569    0.62351590725864    9.24301531484754
H         1.50304371422071   -0.44427335903569    9.06344440336134
H         1.06460583532186    0.76856515237468   10.28389702679734
C        -2.14959347822895    2.68528965475072    1.99433546776965
H        -1.65008844221356    3.23281669525049    2.80152917807380
C        -2.44092982039887    3.65334741269003    0.85479529041376
H        -3.13706577715424    4.42814260880814    1.18298726161949
H        -2.87818891637621    3.12487401615516    0.00521726429872
C        -1.12183824554851    4.28360273020145    0.40813009321277
H        -1.31283876564400    4.99052056420279   -0.39963443792827
H        -0.68077778408386    4.83365778455038    1.24091264811721
C        -0.15054522685980    3.20459341792984   -0.06149256599632
H        -0.56338445411152    2.70021309838535   -0.93806215654509
H         0.79262840578481    3.66392844308684   -0.35599368320507
C         0.10005521870324    2.18443872272952    1.04496736893417
H         0.58736544379612    2.66778899268057    1.89303039564715
H         0.75972377285302    1.39628161969248    0.68226150331341
C        -1.21394917229803    1.56946925753109    1.51563285653145
H        -1.68713610248655    1.02012699957896    0.69790155845142
H        -1.02851290605670    0.87208904625913    2.33993531198224

