59
CSD_code = SASRIP | q = 1 | S = 0 | Stoichiometry = C28H24IrN4O2(1+) | MND = 6
C         5.46363002014645    2.63108315432996   26.98470434653796
C         8.04699458750464    2.61725066579507   27.93421097147384
C         4.58575648453576    3.21087278944464   27.89209592321394
H         4.82251606027164    4.16314872288600   28.34459916506169
C         3.40041780321961    2.58238441799956   28.24834049941832
H         2.74063490027396    3.05723310303854   28.95957045180218
C         3.05266589636734    1.35137571660422   27.71002174726880
H         2.12906216498199    0.87550859620876   28.00016684972546
C         3.89737294742833    0.73818973565885   26.80781080187035
H         3.65839379853515   -0.22063086983071   26.37404989846222
C         5.08455778382340    1.37721893823098   26.45454366994727
C         6.04694331790282    0.83349247453047   25.53200189539407
C         7.11671840675550   -0.51801133742130   24.12514898382555
H         6.80459944299450   -0.66569722084572   23.08887871474993
H         7.63674513234358   -1.41306555352139   24.47426604882057
C         7.93411142918697    0.77636763229563   24.33491934690457
H         8.91823739466911    0.58497671886827   24.77136878928538
H         8.07298641789312    1.33555051859902   23.40435469997164
C         8.46743796705437    1.33281132638863   28.25616590250698
H         8.32067113603714    0.52183986641787   27.55730317668639
C         9.06811520022645    1.05725123335487   29.47687962056861
H         9.38055489010839    0.04743616941389   29.69891334443292
C         9.26809962200986    2.05699986142501   30.41847867348814
H         9.73391353014357    1.82485394390117   31.36336232343653
C         8.86220744933341    3.34617537227815   30.14137758582390
H         8.99940095540725    4.14541010930855   30.85341286750135
C         8.26141320885831    3.61408820826933   28.91261672697570
C         7.79027271625873    4.91496106564019   28.51431390044343
C         7.24666573792592    7.07249508141321   28.51562596701920
H         7.98383940972035    7.87149596268145   28.40900730273345
H         6.39018134423834    7.44754739882687   29.08065102173402
C         6.84745515403575    6.43031238655664   27.16808137276276
H         5.77143058406702    6.48268329822689   26.98080698235055
H         7.36717237978553    6.88704950825858   26.31998967587295
C         5.18377323136427    4.59739949849687   24.23562385381284
H         4.47430032855820    4.12862735721746   24.90328614650072
C         4.76019624240458    5.41401816589415   23.20140380033235
H         3.70914404201646    5.59303124209131   23.04572943739169
C         5.71844157884899    5.99434755183074   22.38334714581009
H         5.43277799584925    6.64812604044665   21.57421444499411
C         7.05333302096385    5.72101548884837   22.62344905199393
H         7.81215838692303    6.17387899078702   22.00714015107336
C         7.40095519351102    4.87466306391884   23.67593882197446
C         8.79450189480944    4.52779760017784   23.99309964801420
C         9.85383758236441    4.78249977764954   23.12255391149155
H         9.67935316477360    5.23360544078184   22.15984687913480
C        11.13951368070439    4.43311357566570   23.49574393534740
H        11.96978230954007    4.62190003295078   22.83336192673637
C        11.33731295754803    3.83719880281715   24.73268634121363
H        12.32230632284597    3.55618497932039   25.06709595111668
C        10.23404996663188    3.60230827574864   25.53492836566118
H        10.33783217710535    3.13418740646659   26.50393670860046
N         7.10872975332051    1.52888295132060   25.26307816441049
N         7.26329781329226    5.04909208935242   27.33634366333830
N         6.46301096281319    4.33714728309021   24.47301607786514
N         8.99875882173102    3.93032226729982   25.17856882391686
O         5.94490906928712   -0.34069978074406   24.92594087646651
O         7.84325037228867    6.00805828736376   29.26185786923552
Ir        7.21459785646296    3.33453461597755   26.22016875549507

