61
CSD_code = SASROV | q = 1 | S = 0 | Stoichiometry = C30H24IrN4S2(1+) | MND = 6
C         5.88166459842848    2.38655697534219    6.57193870530199
H         6.69562530746330    1.69448567621215    6.63918916848244
C         4.93274685039438    2.46999255446721    5.60261532737482
C         4.84023036347184    1.56351839502805    4.42426469365697
H         5.52390236950521    0.72826538076891    4.54505097862130
H         5.10127198845170    2.09284972187786    3.50851189895708
H         3.82525437065623    1.18387512333243    4.32800309262287
C         4.26071393023321    4.13187344943189    6.93710284580067
C         3.36135513460985    5.17684005351803    7.33369002053166
C         2.27887553873658    5.36641461222889    6.44680856375645
C         1.35661534984754    6.34833974780423    6.78343275730967
H         0.50094317274806    6.53434271799036    6.15040770527671
C         1.50291885029603    7.10529013643481    7.93761214705428
H         0.76772144725460    7.85980347549059    8.17437638954480
C         2.57764518422681    6.90347545610582    8.79208620633905
H         2.67790550396405    7.49837467161862    9.68625414234720
C         3.51285455107390    5.93465401771736    8.49452015030317
H         4.35616587610845    5.75511765632863    9.14558231035041
C        -1.00884970476388    6.05847741612232    2.83979691009246
H        -1.51281107165688    6.77539465392038    2.22492196370837
C         0.31355772470580    6.00391757087614    3.14841057429275
C         1.33518274903868    6.98356791920532    2.68440043520474
H         0.84736158104739    7.83347086944763    2.21608015721170
H         2.00553273498998    6.52704328127613    1.95698677913151
H         1.92550692201763    7.33112822846728    3.52956887949060
C        -0.41835993754592    4.23106421227222    4.29541480378093
C        -0.25374470218279    3.12765977707524    5.19730896602099
C         1.07136746653417    2.95593166684961    5.65430891847397
C         1.29678963043772    1.91839340895788    6.54918381236809
H         2.28746864185217    1.74179247660212    6.94271332993675
C         0.26219762358136    1.09241492493306    6.96617297781413
H         0.46782397230786    0.29579669949196    7.66544710117066
C        -1.03175098522842    1.27859594060739    6.50040718909589
H        -1.82627809887162    0.63001353457775    6.83442617167757
C        -1.29669819952030    2.30059492828918    5.61323141800989
H        -2.29617552868961    2.46905400662599    5.23912626726106
C         4.59433859443268    6.37982456450876    4.22543469959410
H         4.24111124790783    6.77534311322901    5.16811569788424
C         5.72777800001491    6.89298887277390    3.61984043367948
H         6.27466861330016    7.69650822544860    4.08477916186368
C         6.13937106632830    6.34474583350301    2.41387745628222
H         7.02631720196171    6.70450711788761    1.91647614310689
C         5.39031490366392    5.32316703184244    1.85770937571389
H         5.69980759963101    4.86945704695281    0.93041942487399
C         4.25058973093378    4.87234867638179    2.52190222653938
C         3.40106368801522    3.79653241395929    1.99058499360824
C         3.40346470436223    3.43722826855656    0.64364668463192
H         4.02212309769979    3.96533081938653   -0.06337326776680
C         2.58211606448234    2.40987134954702    0.21474723838835
H         2.56780653373200    2.11988973828218   -0.82410438284757
C         1.78040181350121    1.76458919214987    1.14490754295503
H         1.13256408243464    0.95294595626079    0.85778935789300
C         1.82244569388887    2.19043289496345    2.46084342412179
H         1.21063043971811    1.71774309590861    3.21723164655365
N         4.02711116955493    3.46985328907930    5.81340067447706
N         0.63864416809393    4.95783006145168    3.96350094118148
N         3.87684779231635    5.39353345863500    3.70112631638995
N         2.60186133630817    3.18147848066560    2.87654681048192
S         5.64197478225691    3.57304191576985    7.79459514541273
S        -1.88627666065195    4.78380768862692    3.59175576063176
Ir        2.39619313058265    4.21891955693197    4.77649273597714

