39
CSD_code = SASTAK | q = 1 | S = 0 | Stoichiometry = C15H17BrN5Pd(1+) | MND = 4
Pd        3.98788325853922   -0.22120121464143   11.44008476248548
Br        5.20680618833743   -2.14483270395319   10.95242996863128
N         4.62973201318820   -0.83079117110661   14.55095579645639
N         3.74653961156037    1.04786198097604   13.95629227028464
N         3.17071327569350    1.51063907883783   11.82082549383770
N         2.83244765783515    1.57714265526045    9.58765816293966
N         3.32126846433882   -0.06937469526785    8.27880689641373
C         4.22423536749393   -0.15312423827098   13.47642544983447
C         4.42357426305730   -0.09332593297580   15.68761851517715
H         4.68194065446754   -0.45923095676714   16.66017295431374
C         3.87424443423976    1.08897526583256   15.32403368471484
H         3.57301094147586    1.92580751866376   15.91818995758626
C         3.20659094129209    1.97652142249124   13.07191926711199
C         2.74223796217029    3.25109933791320   13.36609664257556
H         2.76254016435154    3.63675652964490   14.37097346021733
C         2.25539212077438    4.02101442236370   12.31649264617162
H         1.88666031772516    5.01454836310790   12.51400380487746
C         2.24857765100121    3.53545662272101   11.01432282129725
H         1.88650754084204    4.14072635620234   10.20100378649051
C         2.73067327346204    2.25149979184199   10.80048325387542
C         2.41287323101648    1.93713070981359    8.32942377454984
H         1.94127867030522    2.87210231215318    8.11154401424882
C         2.71879632491796    0.89816652944074    7.51776067339561
H         2.55596827308231    0.77839223361084    6.46624884718889
C         3.40388142641210    0.32301418434523    9.55065155637534
C         5.10357033478312   -2.19859312532953   14.52542749967949
H         5.58233369410410   -2.41565448631051   15.48126489005457
H         5.83733989292650   -2.30349601857586   13.72204710597602
C         3.93338032672379   -3.14546472621458   14.27507950676991
H         3.21293955880121   -3.10105807872781   15.08880379424708
H         4.30113680936194   -4.16214164102604   14.18595857606239
H         3.43446567676188   -2.87812654550797   13.34114137667276
C         3.70312003482754   -1.38168222671220    7.80119721359494
H         3.75440666060721   -1.35102108602245    6.71198623024650
H         4.68918428492441   -1.63031325794669    8.20212756763803
C         2.68528655926514   -2.41776955337148    8.26939579633152
H         2.60327813383506   -2.39006265986144    9.35811376617849
H         3.01546033671832   -3.40915038851618    7.97791813010493
H         1.70642366877643   -2.22964060812332    7.83392008539180

