93
CSD_code = SASTEM | q = 0 | S = 0 | Stoichiometry = C42H46HfN4 | MND = 6
Hf        1.05491743965306    1.46724606672782    7.72305974052660
N         0.97584075561179    4.15705258461561    7.15165604311179
N         0.86546963451353    1.80255019878171    5.61474048411083
N         0.62437041507350   -0.53449043743882    8.34896502667432
N         1.96977291932797    1.00598509374258   10.28491168285964
C         3.33958001894750    1.17644489290361    7.62374282655424
C         4.26269065514052    1.98253206048563    6.69157242279041
C         4.37256448991930    3.44552454280717    7.12779999813776
C         5.66688654614519    1.36528328510412    6.63725229918582
C        -1.04957320049726    2.24518752433775    8.25420987643528
C        -1.85150428239238    1.77676721982590    9.48232100754387
C        -1.22360097716814    2.26321535375450   10.79077846799486
C        -3.30538853559470    2.26338500802889    9.40977852857548
C         0.85992320163387    5.09292799995843    9.37902245501393
C         0.62071254771948    5.20125726547617    7.90800289876135
C         0.05418071585795    6.35238457106609    7.37434541465419
C        -0.16723278117556    6.42559588521298    6.01061003784156
C         0.18908746403235    5.34204047024543    5.22957299929879
C         0.76089467925222    4.22791521909009    5.83461616101067
C         1.21521136401970    3.06548827673407    5.00568111591604
C         1.41739599231863    0.67967763018015    5.06094437412562
C         2.41466291603069    0.67737784660669    4.04341947413977
C         3.01869657902461   -0.47768571759163    3.64286807411058
C         2.66471978461555   -1.72085439311537    4.20103475079619
C         3.31144601331630   -2.91531638523069    3.83147823037603
C         2.90097234617527   -4.11959164845625    4.33008402159917
C         1.81119941297393   -4.17155534294327    5.21385632469801
C         1.16429563770265   -3.03064320806825    5.59305223946111
C         1.57612184209758   -1.76249992335734    5.11709673004496
C         0.94616756928586   -0.56285336862996    5.51976406317055
C        -0.37644525941498   -0.69180166079538    6.20806017572341
C        -1.50887451704628   -0.88031535062483    5.38323569596748
C        -1.47208605411664   -0.66229287913410    3.98482496484258
C        -2.58819141380591   -0.82324398912872    3.21518117926990
C        -3.80634864409972   -1.21930690724738    3.79011714944721
C        -3.87405268301808   -1.46076525336073    5.13341303517880
C        -2.74085115705118   -1.30695166677222    5.95430808493106
C        -2.76547799699056   -1.62398410876161    7.32586307250441
C        -1.67219482650194   -1.43224670887041    8.11792917947965
C        -0.46655142477771   -0.87913266703031    7.59821322225994
C         0.59733431584068   -0.91175364361114    9.74371881813495
C         1.72455612499432   -0.28844900679648   10.50907136605101
C         2.43633178096847   -1.03347170219035   11.44313967575369
C         3.43228393125440   -0.41892427619840   12.17895321855370
C         3.68636144387533    0.92123519264420   11.94779989919453
C         2.94001323204232    1.59737755111183   10.99035808356520
C         3.20183601524288    3.04283935172168   10.71640127124188
H         3.87299176296953    1.12812457699817    8.58692243393918
H         3.36665356895231    0.13482604907347    7.24807135971082
H         3.86718458902529    1.94887323154586    5.67024333306518
H         3.38365972778011    3.89724125218095    7.21404211981569
H         4.95481566389778    4.02012624514551    6.40805369312855
H         4.87521188718995    3.51193256366262    8.09142524671950
H         5.61353792815078    0.34283614475985    6.26968240104045
H         6.11582208284543    1.34987373978265    7.62947032521913
H         6.31922214924173    1.93300557601326    5.97481837635024
H        -1.19198476737753    3.33740896396276    8.21658525915336
H        -1.60332918116162    1.87029209915601    7.37119327262601
H        -1.88853993096939    0.68167741409660    9.49550384252678
H        -0.17512050385371    1.96869048012539   10.84853460608274
H        -1.74915646125916    1.84619306632283   11.64935241991436
H        -1.28824984903657    3.34816651924939   10.85580817971306
H        -3.78669333885693    1.87776250798604    8.51370837950558
H        -3.34214161696372    3.35146816305551    9.37722883282292
H        -3.87495835558700    1.92725160694628   10.27536723291077
H         0.77891542053681    4.04899545645598    9.67992087649059
H         0.13859018515673    5.69512103514610    9.92615919812508
H         1.85728526188606    5.46065114251532    9.61775070594812
H        -0.21173097192851    7.17212701281379    8.02350933629991
H        -0.61257479462557    7.30439481915719    5.56888952120638
H         0.02615287337740    5.35031022056979    4.16350552865898
H         0.77086879710020    3.14613126203311    4.00098417663059
H         2.30881180575687    3.19108265985642    4.89173712194934
H         2.69229555790431    1.60131189124316    3.55735716771612
H         3.77988120167404   -0.45005007504285    2.87472503332713
H         4.14203952572394   -2.85991557663101    3.14044032672188
H         3.40252866245694   -5.03330889731387    4.04485617402777
H         1.48630288446011   -5.12998523847175    5.59450439806097
H         0.32940406252134   -3.08184569103035    6.27568079471983
H        -0.54134126451307   -0.35451704042207    3.53248915694386
H        -2.54112412678654   -0.64550884493970    2.14970755158838
H        -4.67972158605591   -1.33752024676908    3.16478692306370
H        -4.80241336687903   -1.77784010712681    5.58957667886012
H        -3.67177346251753   -2.03694842826575    7.74812789692664
H        -1.72715130147425   -1.72814373681755    9.15541233780071
H         0.65521367864029   -2.00670474675279    9.84862109133463
H        -0.32803018948555   -0.58157436258430   10.25296198376652
H         2.20940980517609   -2.07854065422889   11.58255764766341
H         4.00168650292423   -0.97172737589930   12.91103578352223
H         4.45636533712157    1.44148655073428   12.49602313222340
H         2.98682986425244    3.25512434931424    9.66988214825945
H         4.23630519631138    3.29063610212370   10.94137630121814
H         2.56172505534650    3.65854747449445   11.34728383108288

