57
CSD_code = SASTIS | q = 1 | S = 0 | Stoichiometry = C22H25CoN5O4(1+) | MND = 6
Co        4.59817880539166    2.08745124526509    2.72236933133882
O         2.14342974201293   -0.23163425121183    0.65576762249743
O         3.60673966121402    1.09737920423632    1.50990257737170
O         5.55988427956820    3.05847757047271    3.97407838239679
O        -0.84880313663921   -3.08836662977752   -1.56852584093698
N         5.71920626573937    2.66651413656994    1.20277763971280
H         5.32632362361574    2.21306659995080    0.37559056367706
N         3.56837096821273    1.56543328803320    4.16509021499044
N         4.00705107056321    2.11276077523985    5.31628578251837
N         3.54104897812198    3.75668826852340    2.35843385408253
H         2.52824576369384    3.65116296208743    2.29478638468824
H         3.72389912614880    4.39238761565957    3.13847107242120
N         5.94826242035736    0.61763628680782    2.94081556450943
H         6.46479974135130    0.82042968709147    3.80000746237788
H         5.57986668717899   -0.32930405463411    3.03389055170425
C         1.05981559150932   -1.08305654887976    0.66677477458834
C         0.40013136128853   -1.32624662935437    1.92001433486282
C         2.60274897883837    0.35756219605608    1.75625082906799
C         5.56011499522222    4.11048729371761    1.04690537415262
H         5.97772972080725    4.47863163174420    0.10364994117161
H         6.06581222515919    4.60474707259611    1.87964536394709
C         2.00375972239716    0.14914233758564    3.02532105420427
C         5.13380750120874    3.31031968671943    7.59750599016618
H         4.29826456902215    2.63905196536839    7.71271046391435
C         0.66512648120666   -1.65003555708170   -0.49148331366211
H         1.18263087511821   -1.44822292063729   -1.41562806637930
C        -0.47543691417420   -2.55788602683069   -0.53430384065087
C         5.64251506587504    3.54092952483967    6.31900531906598
C         5.04739212386698    2.87929643573000    5.15871983281820
C         0.87237606043382   -0.72028591445451    3.04936051708723
H         0.36601168987424   -0.91619304977680    3.97970932668913
C         2.51652314294625    0.77446485730265    4.20040115838973
C         6.88598475172787    0.67645391217938    1.79953159464819
H         7.84605444320162    0.21494745207187    2.04824672337351
H         6.44073671606792    0.13217991246367    0.96293966444134
C         5.70363573319303    3.93801940575238    8.68730464771939
H         5.31118855538560    3.75859306152696    9.67637401916508
C         7.06740592019601    2.14265928666746    1.40973859499408
H         7.52974215898370    2.69503360575726    2.23118451191384
H         7.69457399595470    2.23536355383556    0.51655063361103
C         1.90759988080628    0.57589961748114    5.55399775261126
H         1.03970204979743   -0.06834766917740    5.54467540082872
H         2.66014320570541    0.15851009090688    6.22161307107223
H         1.63210842267797    1.54711428264410    5.96271375579911
C         4.05622043371586    4.37108182336426    1.11675677135713
H         3.84208537361748    5.44324550885119    1.08394638968281
H         3.56566453465796    3.88897702741057    0.26758284833613
C         6.72385968439936    4.40515349139125    6.15057423751161
H         7.11121533048879    4.57799423450037    5.15740615145006
C        -0.72825080503739   -2.21050574307837    1.89489754111630
H        -1.23534915025700   -2.39712968471171    2.83082886779938
C        -1.13963362064953   -2.78681572149486    0.75308025090801
H        -1.98807601763101   -3.45400895322072    0.73392635724642
C         6.77867284046188    4.79781607102789    8.51468767767127
H         7.22047557394256    5.28636182316368    9.36939130374127
C         7.28682037349982    5.03042902443313    7.24626484647193
H         8.12239242796249    5.70038552729576    7.11278616374488

