31
CSD_code = SASVEN | q = -1 | S = 0 | Stoichiometry = C14H6CoN2O4S4(1-) | MND = 6
Co       -0.72403598347781    6.05160581629837    3.47719564724035
S         0.86192689161876    7.66969922780016    3.79575740524854
S        -2.28026922833315    4.43429817069158    3.03269976059574
O         2.23575350370870    8.54935811395680    1.76713561243742
O        -2.57039880489788    3.55406168836440    0.60011531783696
N        -0.29493102102104    6.05226059543624    1.70660237390889
C         0.65356940109207    6.86977635913332    1.23000145725744
C         1.00375779824914    6.89524211756946   -0.11588924909063
C         0.36195892946118    6.05383821350346   -1.00519025854216
C        -0.61520024392247    5.21138138814095   -0.50904745278084
C        -0.91969504248525    5.23523797468792    0.84794353767224
C        -1.97968455724147    4.31427101488392    1.34130198776824
C         1.37016901905493    7.78986001039110    2.15475139183980
H         1.77757625739184    7.58405309114996   -0.41814329771310
H         0.61600826822882    6.05461854687978   -2.05454056672710
H        -1.16470286750062    4.52308345794691   -1.13267298242535
S        -2.31071486964973    7.66915986484235    3.15832650541542
S         0.83089155775122    4.43318758351331    3.92149456082630
N        -1.15422213295872    6.05185606828491    5.24752310438431
C        -2.81966030176859    7.78899731276397    4.79911928512828
C         0.53078486981096    4.31411929553240    5.61306341426611
C        -2.10261967051450    6.86953223302592    5.72407728009256
C        -0.52938930256416    5.23499014873577    6.10627242904235
O        -3.68454283466236    8.54918202467453    5.18674685569693
O         1.12129409162493    3.55380469627974    6.35433130925739
C        -2.45263805396511    6.89531116256575    7.07001009872651
C        -0.83380579065294    5.21135242892882    7.46328041703549
C        -1.81088836532507    6.05392547593034    7.95937068389651
H        -3.22655475266214    7.58404843812212    7.37218222597942
H        -0.28428474822760    4.52312101919423    8.08696450559432
H        -2.06495201616141    6.05476646077175    9.00871664013168

