35
CSD_code = SASVUE | q = 0 | S = 0 | Stoichiometry = C11H15Cl2N3O3Zn | MND = 4
Zn        1.14569756712895    1.91415560812212    6.37694949981632
Cl       -0.40399610622425    1.23754875765691    7.76737987753262
Cl        2.38272407839214    3.54633008081325    7.47903815046995
O         5.31086590884838    3.01675456873756    0.13613758623878
O         6.46004873525990    1.84074898316679    1.52287542026898
O         1.07781717267097    2.26714392308278    4.55923624983883
N         5.43866317908601    2.40887816756186    1.18092435679718
N         2.78277890867279    0.65571746495306    6.33435347464835
N         2.85734295941615    1.36504726669976    9.34823629232143
C         3.35035542075079    1.59836654804641    4.15617119929720
C         2.11880890766002    2.26064345108660    3.82222911981026
C         2.05830411172362    2.94394599510473    2.57087593426086
H         1.12487278399928    3.43007848059619    2.33326938782545
C         3.11724117821156    2.99828771826173    1.71787542558587
H         3.06239258814063    3.52463086883196    0.77700335373369
C         4.31921037959838    2.35547463541912    2.06487564117262
C         4.42054506375156    1.67113975057978    3.25608564797881
H         5.35694265792935    1.18339092236683    3.48949763831414
C         3.58177309694342    0.84668785781828    5.34595090052337
H         4.57233028164734    0.37723507411944    5.38718584145871
C         3.24500274971453   -0.20979197199664    7.40053106832988
H         4.33820048272379   -0.15385935089028    7.49303353694598
H         2.99168839973716   -1.24170859410204    7.12558240912860
C         2.55204450813339    0.05714193670699    8.73397101926679
H         1.47138006015211    0.02006172720556    8.56721805671338
H         2.83355569937527   -0.72855855564977    9.44107812419317
C         1.88668706175350    1.66198221879255   10.40974298184257
H         1.96233000618623    0.92718155010727   11.21064105875424
H         0.88237060687076    1.64203596861995    9.98659452346564
H         2.07877701363136    2.65605023660999   10.80506877905816
C         4.23214867356238    1.46513765692674    9.84047729371990
H         4.39370505163925    2.45725196853087   10.25510058108971
H         4.93662371161600    1.32418438549912    9.02510665676053
H         4.41588314451307    0.71651016042102   10.61236228485337
H         2.72128395679753    2.16347454020692    8.61034062797809

