47
CSD_code = SASVOZ | q = 0 | S = 0 | Stoichiometry = C19H24AuClNP | MND = 2
Au        5.06148200666340    7.54591118990122    1.02841078675870
Cl        6.51962654678785    9.08675604018169    1.81101370980412
P         3.61600707654224    6.01512435906349    0.24685431420488
N         1.18598142747769    6.12294266975109    1.44361445969821
C         3.89119694283639    5.38998135685731   -1.48210441583034
H         4.98281485333892    5.39149408482728   -1.61771647996079
C         3.40166973306948    3.94117053186735   -1.43640296009935
H         2.31054184289822    3.90735460466362   -1.40652124218697
H         3.74281274441751    3.38301505497499   -2.30937509963154
C         3.95134884567991    3.35362602079378   -0.14159357062882
H         5.03764083971882    3.26657137278923   -0.20714141117319
H         3.54662309431584    2.35942997779377    0.05237967585462
C         3.56702905391290    4.31704899255498    0.99339056117389
H         2.52414763685328    4.15231876395760    1.29617528538205
C         4.45999542421133    4.25427028720505    2.19713679212869
C         3.94552714701935    3.96196583010629    3.45273988591216
H         2.89079897089927    3.75165422235409    3.56115860570575
C         4.77239754417744    3.94630633126037    4.56284551741721
H         4.35979295955108    3.72150702215461    5.53516784555461
C         6.12124264539235    4.22596302883435    4.42960815306385
H         6.76392284604330    4.22189212866989    5.29674403349903
C         6.64388353576091    4.51841818532426    3.18098044667333
H         7.69292900167735    4.74660074638200    3.07067599197132
C         5.81662328729923    4.53387998634799    2.07353258062716
H         6.22746141391927    4.76673174501294    1.09879306339119
C         3.28344407472099    6.32880473944595   -2.48539235074093
C         3.76131609186360    7.63655941529697   -2.52799462451969
H         4.56003089834514    7.92708462549477   -1.85625897804941
C         3.23065842195601    8.55609481119806   -3.41144495074852
H         3.61350373314951    9.56514174009953   -3.42927213797111
C         2.21059511117518    8.18077924563022   -4.27124719822349
H         1.79342452543539    8.89652837616069   -4.96342119143725
C         1.73276114567931    6.88363605452633   -4.24004483791420
H         0.94126699185348    6.58238053970661   -4.91029706595348
C         1.83133169722704    6.48971840068230    0.20494730958999
H         1.78382003301979    7.57535573798350   -0.01127792687541
H         1.34614037946392    5.96026850510114   -0.62446935592246
C        -0.25361695761946    6.27149549108511    1.35947104224497
H        -0.56315515846246    7.31152788536931    1.18484248974312
H        -0.69747639511223    5.92751043011176    2.29217848426569
H        -0.63290760478196    5.65369927525151    0.54657418196888
C         1.73958074574163    6.85158643609055    2.56522129802955
H         1.62556893347663    7.94027854446276    2.46196482058675
H         2.80578262363339    6.62062531401801    2.64666585999150
H         1.24587572395701    6.53054313614104    3.48087532316039
C         2.26349117199966    5.96150829812837   -3.35199988753971
H         1.88186639282162    4.95173846438667   -3.35198683299394

