79
CSD_code = SASWUH | q = 0 | S = 0 | Stoichiometry = C36H36Br2N4Ni | MND = 4
Br        3.33126670692370    5.92084472831922    6.79313750947818
Br        0.30893903540940    9.36730080375720    7.21931863287860
Ni        1.82091128448745    7.64482298580019    7.00508873652251
N         3.20301317247908    8.61563343752148    9.40242953181521
N         4.00066630236362    9.45550094965843    7.59525993900673
N         0.44813636026986    6.67283379044350    4.60509054222658
N        -0.36364782478258    5.84021112698225    6.40949747438819
C         3.06494607547141    8.61147904485379    8.06621201778620
C         4.22148771971432    9.45435805714407    9.77010416777672
H         4.48893491165129    9.60713769273999   10.79505690875814
C         4.72525137128363    9.98161211863595    8.63070947147301
H         5.52012024354469   10.68096303704308    8.47448893568878
C         2.38582721636907    7.85742764324412   10.32062318153964
H         2.97659611183340    7.03956662465039   10.74822445715225
H         1.56352344028838    7.41839653490359    9.73482096865413
C         1.82587760431167    8.73363641207477   11.40863680464989
C         1.11265593475530    9.87868921934868   11.07369184611849
H         0.95204648704760   10.13100454831372   10.03590938899422
C         0.59776923680413   10.69198801124996   12.06646716768778
H         0.04038390893163   11.57638357567136   11.79707535304967
C         0.79050542104720   10.36914732502990   13.39979844975978
H         0.38584779752173   11.00329591707982   14.17478727399636
C         1.49981453462598    9.22921842986713   13.73755275504631
H         1.65115566652340    8.97214139183379   14.77563009065695
C         2.01812368375509    8.41525554585534   12.74503328374737
H         2.57013040528432    7.52482779592668   13.01125524958903
C         4.22346648146392    9.70538670078226    6.19505007547872
H         4.31985874889799   10.78132308451070    6.02448143610210
H         3.33220643179249    9.35013441006196    5.65615034604174
C         5.46051044239559    8.95767275309867    5.67615736261770
H         6.36273538470640    9.42089819684834    6.08132596699799
H         5.41523130156246    7.92346464977597    6.02242536164807
C         5.47875863352178    8.98528690917505    4.17416619530618
C         5.05039269925109    7.88172684539315    3.44867444827198
H         4.74619670795664    6.98548022642117    3.96923757041896
C         5.02588112064259    7.91686672326180    2.06550239099998
H         4.69853259602313    7.04887904381994    1.51317546539528
C         5.42249221883536    9.06008546875212    1.39394888682612
H         5.40230633079013    9.08876887007473    0.31452028252524
C         5.85156171606735   10.16512633849443    2.10972467233877
H         6.16617242542640   11.05852662994305    1.58997551035635
C         5.87914271629810   10.12720367949995    3.49206430274673
H         6.22041625743101   10.99050159240411    4.04661646507518
C         0.57847099422922    6.67900821286629    5.94210299728050
C        -0.57188324353193    5.83779871779179    4.23333676031385
H        -0.83422425218667    5.68422267002977    3.20721156292206
C        -1.08435876924112    5.31496825671060    5.37089358601616
H        -1.88318316792327    4.61939252625932    5.52371156217424
C         1.27453160472561    7.42512809100969    3.69020623070819
H         2.09907868954102    7.85621294643457    4.27877505948028
H         0.69231077173851    8.24864790004902    3.26166484519140
C         1.83065810320449    6.54556555811135    2.60301030920243
C         2.52966881028631    5.39207875122126    2.93906706060775
H         2.68261917883640    5.13625725913537    3.97713473370868
C         3.04072904681734    4.57530183802149    1.94717399673670
H         3.58653037196405    3.68396496358067    2.21743683741098
C         2.85892823888217    4.90342525523624    0.61360606916153
H         3.26049225995103    4.26645091888611   -0.16067493024474
C         2.16464884709471    6.05228346382616    0.27478280633564
H         2.02245805895782    6.31380364872687   -0.76346007643643
C         1.64974995496875    6.86953479727193    1.26640118595329
H         1.10968559358695    7.76699304818845    0.99932365023668
C        -0.59365500680418    5.59206290299938    7.80895169453514
H         0.29335566510083    5.95162071124637    8.35208467678563
H        -0.68733366646223    4.51598484364327    7.98094306491500
C        -1.83608138124259    6.33581247519409    8.32039841385132
H        -1.79156218595791    7.37034960749189    7.97498782268754
H        -2.73441697155547    5.86993704735158    7.90996311925063
C        -1.86246611232458    6.30699349323718    9.82228745129697
C        -1.41004514285001    7.39940714735762   10.55024934049602
H        -1.08064280518916    8.28745521683642   10.03123696037122
C        -1.39354021247965    7.36384093373974   11.93342584642317
H        -1.04498752519863    8.22221827751887   12.48744333373076
C        -1.82350978844646    6.23137619224538   12.60283961692376
H        -1.80979604639852    6.20217041532848   13.68236455210807
C        -2.27576630260539    5.13716724863589   11.88465454225298
H        -2.61712432159568    4.25273084665721   12.40264436146608
C        -2.29431488841413    5.17535960527077   10.50205027544811
H        -2.65496942045159    4.32136534164391    9.94577380309522

