77
CSD_code = SASWOB | q = 0 | S = 0 | Stoichiometry = C34H30Br2N6NiO4 | MND = 4
Br        2.17312845748572    8.05982532202424    6.83184185914360
Ni        3.08413910311538    6.09836943422947    7.65322578070917
O         1.23711384302562    6.81584951923872    1.26160776564995
N         5.79146440921623    6.48848041438905    6.49581274949070
N         5.35751090837308    7.78780568231331    8.14826078687448
O         1.48752664039284    4.71656480196837    0.88876257900682
C         4.84205995330108    6.79286863114691    7.40670632196209
C         6.88244960246165    7.29982564053805    6.66605598811705
H         7.74926128499380    7.22779538276902    6.04223585582868
C         6.61032043170140    8.11530865937300    7.70930270919910
H         7.19352080559623    8.88243526915360    8.17425890517698
N         1.73932815627140    5.73781355383079    1.49425805306630
C         5.72923346923512    5.39321506861992    5.56287551422903
H         5.58741413440795    4.46125071527709    6.12595649280972
H         6.69549949055773    5.33059848440490    5.05109613380274
C         4.63786318191836    5.51656020328588    4.53001471491461
C         4.07419480934155    6.74259470859807    4.19293419058579
H         4.39046503028478    7.64682315990093    4.68990395422889
C         3.10192773936847    6.81873347374026    3.21307103106859
H         2.64592848269883    7.76162174269205    2.95459081713929
C         2.71313231873507    5.66302545049108    2.55000962587754
C         3.26475899174844    4.42906234350943    2.87681873868477
H         2.93563041423481    3.54785222178769    2.34907188485804
C         4.21654252960911    4.36143422869489    3.87122969663888
H         4.64598193167084    3.40861135613586    4.14268546699426
C         4.73644979141693    8.35369093045935    9.32242009277878
H         3.75999723650882    7.85939165391389    9.44446483262922
H         4.56619827465957    9.42390158506081    9.16950912634953
C         5.59616534584455    8.11032625722838   10.53584757246195
C         6.04681928872619    6.82441559083221   10.81102240444358
H         5.74984774015213    6.00067455275335   10.17811781488562
C         6.87100044931898    6.59121728365358   11.89690758554452
H         7.21162992968299    5.58841986110287   12.10453971413966
C         7.24170112769905    7.63931852964258   12.72375700102278
H         7.87705415605184    7.45599494755818   13.57615305738770
C         6.77966259229030    8.91811277080987   12.46544638590280
H         7.05481909043836    9.73402285015305   13.11586268985764
C         5.96485628322783    9.15453442723449   11.37121511399229
H         5.61168216629992   10.15543760141349   11.16594117018784
Br        3.99779395026463    4.13814367807752    8.47399175644034
O         4.93163814495926    5.37981932177937   14.04529761229945
N         0.37737644509182    5.70763382832524    8.81114960124933
N         0.81123726976034    4.40834117431825    7.15860303063790
O         4.68128195361220    7.47907728614017   14.41833756888237
C         1.32672374537050    5.40311019035728    7.90029759853212
C        -0.71363212410550    4.89633026678849    8.64089524618170
H        -1.58044003167053    4.96844569114897    9.26469632021991
C        -0.44156604925005    4.08087895981189    7.59758949223137
H        -1.02481485999218    3.31385071016652    7.13255129667431
N         4.42943303222628    6.45788341620408   13.81276419469996
C         0.43969947216865    6.80296730501749    9.74401298663163
H         0.58169893115911    7.73488622559284    9.18089852138917
H        -0.52658762234804    6.86576381651851   10.25571691856719
C         1.53101056016860    6.67952327657395   10.77692616708485
C         2.09451992830746    5.45341932640082   11.11401177627773
H         1.77819381616438    4.54924119416496   10.61699215761667
C         3.06675828454207    5.37715698998582   12.09389082107837
H         3.52262878980950    4.43421002529244   12.35238127725681
C         3.45567843342464    6.53281196199119   12.75697552104303
C         2.90423016294681    7.76685025150805   12.43014901981657
H         3.23343109118226    8.64800677889619   12.95794315104920
C         1.95248823338996    7.83460255197666   11.43570223546330
H         1.52317157764927    8.78748316565754   11.16425147535706
C         1.43226327324321    3.84260170870684    5.98435208535611
H         2.40872266879427    4.33689417297420    5.86231868240116
H         1.60253271502787    2.77238693176359    6.13718482462004
C         0.57251037914371    4.08602648087221    4.77096113509104
C         0.12179644671248    5.37193412337706    4.49586000605406
H         0.41879403184478    6.19567321911707    5.12875188310282
C        -0.70244241584368    5.60514496955557    3.41001866746525
H        -1.04313320814683    6.60793781537582    3.20246403125676
C        -1.07315441505030    4.55706091246121    2.58315129800256
H        -1.70862995286840    4.74037070594439    1.73084322389733
C        -0.61104732108886    3.27827561999961    2.84138212645752
H        -0.88624944562359    2.46237552962918    2.19097458509068
C         0.20383291104431    3.04184432532921    3.93555476072840
H         0.55707160591732    2.04095178227424    4.14076476616424

