66
CSD_code = SASWOZ | q = 0 | S = 0 | Stoichiometry = C22H31B9IPPdS | MND = 7
I         7.10590671241336    3.67036863108455    2.09951287454657
Pd        4.46838664631081    3.20158298791772    2.64225737581143
S         5.07068714376639    3.01050918192765   -0.44207424528245
P         4.51472892508142    4.29414746031717    4.63263636994623
C         4.55701725293162    0.90669913480543    1.71813632857787
C         3.82013081894877    0.71295729303364    3.01853682265524
C         4.53115724247076    4.74305373012330   -0.26461485454765
C         4.34292684455637    2.73726708479517   -2.09397967259640
C         4.70470298930292    2.99121029243290    5.88915630490356
C         3.82162207993746    2.77867162550697    6.94006613722225
C         3.99608825676918    1.69134540772007    7.77964168107565
C         5.04489955582251    0.81065179945622    7.57616141623531
C         5.92424703484300    1.01180621527355    6.52274893702829
C         5.74910655036437    2.08979104195023    5.67598083989431
C         5.87478407807445    5.45157347308182    4.99290053495160
C         5.95865011355550    6.56355970619844    4.15953643146162
C         6.95779619714844    7.49773903531072    4.34117755169859
C         7.88559821666375    7.32391135642828    5.35642003493568
C         7.80866317918303    6.21804444512086    6.18458886168926
C         6.80632447726329    5.27975827089888    6.00666891982135
C         3.12091916231907    5.30678582028381    5.23125400302584
C         1.97412639118008    5.41931174564179    4.45660771305123
C         0.91880621814706    6.20385915528226    4.88890807946384
C         1.00882415576231    6.88327724487491    6.09193699718093
C         2.15723689922811    6.78279806314791    6.86274415943145
C         3.21304950137397    6.00046016695582    6.43468502993766
B         3.86391806693247    2.13735008063181    0.79481286219088
B         3.65812705266492    0.40873747472344    0.38086787464532
B         3.57718838889942   -0.52927494768608    1.88078989083692
B         2.65858865409855    1.95015110887096    3.10231119435030
B         2.48077236914508    2.77306732094196    1.52341319640871
B         2.24333877897673    1.47858295854163    0.29402631998366
B         2.07146593904758   -0.08904963919077    1.07855602809990
B         2.26134551825885    0.16933658436643    2.82121848340002
B         1.42486199540843    1.41329230659080    1.84814792788269
H         5.63698324069070    0.75472267350531    1.72422803656772
H         4.40766540349653    0.47692716757901    3.90536044918834
H         5.19615252411768    5.37276487631187   -0.84874019437770
H         4.60002469881527    5.01539146682003    0.79645001016895
H         3.50475943280112    4.83688400738450   -0.60635530111267
H         3.26482474454140    2.84462546439649   -2.05470800514278
H         4.59967762360342    1.72996895762721   -2.40210116696806
H         4.78101362466698    3.45244835961337   -2.78213856258741
H         2.99504974772307    3.45683254519453    7.09797659437362
H         3.30572030150604    1.52971732963490    8.59475813737575
H         5.17454729070811   -0.03657347600284    8.23337898254888
H         6.73995989809087    0.32246957851244    6.35853219683608
H         6.42820081010346    2.24898298423400    4.84406394898205
H         5.23467115829879    6.67497458702936    3.35950703200576
H         7.02313990602091    8.35544272025998    3.68843342057817
H         8.67397157056726    8.04838615082600    5.49587382822662
H         8.53576906095492    6.07980196231728    6.97135243263660
H         6.75453700820902    4.41308564809941    6.65076662806776
H         1.91568379218548    4.88337500079707    3.51739194937693
H         0.02645434322277    6.28646055667262    4.28628463821278
H         0.18626800284044    7.49635846187668    6.42969539869424
H         2.22918641862158    7.31789121364973    7.79848301871365
H         4.11423542293514    5.92542017313461    7.02838659811651
H         4.25056783216742   -0.01811296219516   -0.54684628406590
H         4.11053696791140   -1.55871485861143    2.05949991118292
H         2.30984296059089    2.30357395075908    4.18162357626928
H         1.99661944307275    3.84829138404344    1.33951500886608
H         1.73454573184894    1.74958048633426   -0.73750268062231
H         1.37326425451424   -0.91731217168462    0.62023494364794
H         1.77357084151831   -0.40043619124884    3.72683435044008
H         0.27126253682969    1.58843833580349    2.01282269392903

