52
CSD_code = SASWUF | q = 0 | S = 0 | Stoichiometry = C12H27B9ClPPdS | MND = 7
Pd        4.15985678137362    2.67596506374547    2.23934354876799
S         6.47213810302901    0.63933193793376    1.96340582437585
P         2.10908812325558    3.26812232783663    1.45188639864365
Cl        4.62271384017141    1.89466787648342   -0.01729262801951
C         6.40053517999987    3.64142448342040    2.52489308463377
H         6.67416515675744    3.74682881915014    1.47402381540519
C         5.51284714213806    4.70258151307460    3.12096880689235
H         5.17729662761594    5.50111345897239    2.46057214226486
C         5.04404964410928   -0.45133251309326    2.25004669767809
H         5.20358375864148   -1.37916259416208    1.70891177534274
H         4.16134638361561    0.06253384597348    1.85460946657771
H         4.93569486009609   -0.63402812821937    3.31548639288118
C         7.67076841030562   -0.36522533097987    2.91666262742663
H         7.34345252322427   -0.46380662759769    3.94509868640800
H         8.62815451437619    0.14189382185473    2.88566484990127
H         7.75732872987437   -1.33774557096456    2.44388831113696
C         2.43474130130742    4.77329419368102    0.47836310461629
C         2.66829707394547    5.96320558335194    1.16667419964701
H         2.57518558135293    5.98171554632722    2.24462017761614
C         3.02027894888926    7.11269339407330    0.48493260180809
H         3.19377289358779    8.03091993070370    1.02815271918156
C         3.15985970056868    7.08523984130841   -0.89382719986646
H         3.43915263916979    7.98195779756822   -1.42741625295080
C         2.95273321633501    5.90208873582689   -1.58214033005729
H         3.07579564876023    5.87366300775748   -2.65506689721725
C         2.59627812702856    4.75011298314926   -0.90240317485587
H         2.46281948134835    3.82771519856176   -1.44573529356686
C         1.23743876013662    2.16620475910902    0.27262047471602
H         0.78563692618571    1.35014241862974    0.83535660885469
H         1.95682355043763    1.74578090215582   -0.42624788996728
H         0.46206711191208    2.71153616063552   -0.26431936505120
C         0.67812485997213    3.80169868573484    2.48489412642222
H         0.99590102103058    4.51352488089987    3.24099984329420
H         0.27331571996313    2.92747174023388    2.99068544383682
H        -0.09305984879331    4.25234527663680    1.86209845322876
B         6.03396096989805    2.10916249892333    3.14820314218815
B         7.49882467168108    3.00992486907059    3.62853719320878
H         8.54536046022267    2.64699355613902    3.22030461823452
B         7.12593220394699    4.74105078732951    3.66202757248749
H         7.82911617395138    5.59230962651973    3.26497806343794
B         4.36258982149247    3.88091658352831    4.08592831319652
H         3.31750900298000    4.40969200032641    4.26784519300966
B         4.82512915407726    2.18511811283791    4.35054754461556
H         4.09113621241461    1.31564655529235    4.70374016112072
B         6.54107867988161    2.18670910981043    4.88436522955628
H         6.97343262176005    1.25820238000090    5.47267177188744
B         7.09271375954647    3.84056509191520    5.17304507365698
H         7.86804907900548    4.07858746623516    6.02509753349494
B         5.74368874178060    4.91631035327306    4.74810191532558
H         5.45018741128546    5.96020590031132    5.20381717810470
B         5.39126719608478    3.35225111756117    5.52580465104868
H         4.96534134829554    3.34588057114000    6.62397369543138

