107
CSD_code = SASWAK | q = 0 | S = 0 | Stoichiometry = C52H48Cl2P4Ru | MND = 6
Ru        5.68502335703422   -0.00023778412636    0.00003389971442
Cl        3.63952325346393   -0.59584993747976    1.15430073786046
P         6.79746295795923   -1.33199835608188    1.49690212068398
P         5.67242290443269    1.42045425874915    1.84690729961695
C         6.08245530273610   -1.05042856304823    3.17925901856483
C         5.67169575678276    0.40271251842609    3.41657928070404
C         8.56930935411857   -0.99244530776244    1.67822378254866
C         9.09915806807539   -0.20390725912450    2.69261107809130
C        10.44915175031136    0.10059870233145    2.69852042059033
C        11.27522716888882   -0.36863457974693    1.69191535585584
C        10.75080575916080   -1.14842323658893    0.67292198107983
C         9.40472261940149   -1.45476653527102    0.66253491598817
C         6.69780803934094   -3.14833412235002    1.47724071408945
C         7.76099882807182   -3.99486811769501    1.76435058321262
C         7.56487716613187   -5.36485484651693    1.76909782460273
C         6.31417827965038   -5.89539401355844    1.49992031702430
C         5.24883152820845   -5.05302802378440    1.22356902241581
C         5.44094949990472   -3.68471071773977    1.20814882742955
C         7.04512111455403    2.55415489669817    2.27807262676514
C         8.22321671823750    2.57899343467723    1.54651184789191
C         9.26882689165283    3.40086446269374    1.93442349804926
C         9.14571647231355    4.20089531561768    3.05522810484173
C         7.97122950286786    4.17837327592962    3.79364032552474
C         6.92816578005298    3.35936391236572    3.41115143200722
C         4.26937782710119    2.56331697630438    2.09983784729683
C         3.04924115714206    2.16630571524505    2.64007126278683
C         2.00375943231435    3.06791692503148    2.74171419917177
C         2.15459957143663    4.37063986506500    2.29872788809830
C         3.36457013717093    4.77353523932929    1.75808153334387
C         4.41288880655911    3.87893455529646    1.66152635953132
H         6.79383909942150   -1.41181691049641    3.92964893719242
H         5.20063766477570   -1.69966594994077    3.21056806481029
H         4.66753161186928    0.44173782965886    3.84493102225668
H         6.35307500662517    0.89637057959173    4.11618679450487
H         8.46541179024623    0.18234620835105    3.47760545405265
H        10.85328076211342    0.71668836667134    3.48919601021340
H        12.32687035669594   -0.12129614259260    1.69722493529973
H        11.38953967725899   -1.50939265443329   -0.11992187620595
H         8.98332023181258   -2.05124911987416   -0.13543264456218
H         8.73801675414566   -3.58719610812931    1.98171993289914
H         8.39459136714172   -6.02192904964363    1.98742341906936
H         6.16965794222304   -6.96617963203552    1.50555318946383
H         4.27148229201240   -5.46247814844915    1.01182687645145
H         4.61890542120271   -3.01700381008363    0.98136083137584
H         8.33062065400685    1.95153285072499    0.67460034514103
H        10.18151942906774    3.40816708659394    1.35682571405890
H         9.96028955324475    4.84251902121708    3.35913331150457
H         7.87098412283259    4.80186997713177    4.67084270388222
H         6.01117735433566    3.34737310622965    3.98687449526510
H         2.89263477032320    1.14602881183835    2.95573341285288
H         1.06322619229049    2.74447553743902    3.16399135630618
H         1.33379513867688    5.06885265778992    2.37415915353151
H         3.49520769017678    5.78727918498710    1.40839883428352
H         5.35713377186710    4.20310428692791    1.24852597142210
Cl        7.73030102741700    0.59621523611136   -1.15581912681522
P         4.57386223902150    1.33197564158007   -1.49686550593542
C         5.28841858039205    1.05042401635655   -3.17935712587017
C         5.69895845235011   -0.40287034512720   -3.41627331539107
P         5.69828083160709   -1.42095768168909   -1.84668668046006
C         4.32533730139752   -2.55444166087748   -2.27806065536091
C         3.14724902739919   -2.57924900033659   -1.54654637072962
C         2.10163686220033   -3.40119435423707   -1.93436257879033
C         2.22475270247876   -4.20152611158099   -3.05494567529582
C         3.39921403484263   -4.17897455994471   -3.79339838672336
C         4.44217131049351   -3.35972673457033   -3.41113543008969
H         5.35914015926182   -3.34786445626753   -3.98689755830011
H         3.49952080498370   -4.80263941541232   -4.67048187912916
H         1.41020181606691   -4.84324982695230   -3.35869907841643
H         1.18894675118495   -3.40826384264435   -1.35676032781170
H         3.03953173020752   -1.95159253960038   -0.67481249937455
C         7.10106882004413   -2.56399828105968   -2.10046637638621
C         8.32135949373457   -2.16698415551968   -2.64040204805680
C         9.36690518591624   -3.06859374379690   -2.74183092070816
C         9.21597437102908   -4.37135124191178   -2.29895145214809
C         8.00582559325124   -4.77426177501010   -1.75870352309178
C         6.95748793014830   -3.87965879245243   -1.66229172293429
H         6.01325285436022   -4.20386823738709   -1.24928230858548
H         7.87501297425114   -5.78810604182903   -1.40936063621802
H        10.03692225796791   -5.06946196600993   -2.37384460228116
H        10.30758791234597   -2.74507321735816   -3.16373977964925
H         8.47785647194098   -1.14686407835373   -2.95668847353644
H         6.70296884791116   -0.44198275998419   -3.84501422332279
H         5.01736300768604   -0.89633851290307   -4.11580340321574
H         4.57669177260207    1.41187136655550   -3.92941044273829
H         6.17030512341794    1.69955839947628   -3.21096504654684
C         2.80184046221321    0.99302254476829   -1.67764437766808
C         2.27206336418238    0.20434026656381   -2.69192267000368
C         0.92196389317359   -0.09954238706421   -2.69834640061132
C         0.09570629907802    0.37034110355744   -1.69218305403341
C         0.62011759917684    1.15011844240664   -0.67317977150437
C         1.96632146397279    1.45596352270061   -0.66236869087351
H         2.38765940334282    2.05218410059998    0.13580860683787
H        -0.01879673747999    1.51169270388212    0.11924514608918
H        -0.95619802997973    0.12416656095957   -1.69827581961913
H         0.51799044132644   -0.71570797367975   -3.48903530196843
H         2.90604430446545   -0.18277084829447   -3.47627408603045
C         4.67403103843075    3.14838098652184   -1.47747507387613
C         3.61130583384740    3.99528424741307   -1.76511183981382
C         3.80787357029644    5.36522017893461   -1.76927922771120
C         5.05848982030603    5.89535515783508   -1.49892488110741
C         6.12346145004872    5.05260679146842   -1.22225112715117
C         5.93089345117646    3.68434714259776   -1.20749566375591
H         6.75252514701772    3.01617654672545   -0.98051555975774
H         7.10091157471933    5.46171673969984   -1.01030018070935
H         5.20344679939404    6.96608194690914   -1.50484746687804
H         2.97860692074098    6.02264212153201   -1.98827672789013
H         2.63407202316009    3.58811214435080   -1.98248902852588

