76
CSD_code = SASWEP | q = 1 | S = 0 | Stoichiometry = C33H33FeN2O5P2(1+) | MND = 8
Fe        0.56731462133994    0.66392332775589    5.66203515693613
P        -0.46511576884683    2.29980269700224    4.72016442518720
P        -0.21313176275783   -0.80004455593228    4.23372184533100
N         1.97146712058451    0.88607157753320    4.63232061324053
C         2.91362385564252    1.11398872178292    3.99485058853506
C         3.98760296466997    1.46224997896406    3.17031056595268
C         3.72432407589343    2.22179981131882    2.01850990345665
H         2.70901009729424    2.51111673082419    1.79403533372138
C         4.76416520307158    2.58883602627543    1.19423847914259
H         4.59639644713899    3.17283800930598    0.30203661445410
C         6.06096286400567    2.20001486373591    1.51569675755177
C         6.33374052845575    1.44865534597187    2.65386903487797
H         7.35425085722070    1.16795418485067    2.86603331826529
C         5.29859443066848    1.07836117198151    3.48433416550653
H         5.48867086761073    0.49607649705659    4.37225686753536
N         7.15216176034712    2.58795529159376    0.64425734850935
O         6.87153629999250    3.24349272780857   -0.33284841495385
O         8.26367482209128    2.22937411482334    0.95727191056363
O        -2.02487548633009    2.09599345618736    4.42334260639296
C        -3.05456527040546    2.50622917885371    5.27001576813322
C        -3.60828734058790    1.60370656691082    6.16375631336327
H        -3.21460089898569    0.60070347356502    6.22133987923449
C        -4.66565177693354    2.00147031938106    6.96472319233503
H        -5.10096792888317    1.30051204152543    7.66017589960976
C        -5.16109492069252    3.29139180746589    6.87470690489378
H        -5.98346958470906    3.59774301973713    7.50179175835723
C        -4.60244962442480    4.18559537969574    5.97679281223624
H        -4.98895287985770    5.18998864860685    5.90079641792856
C        -3.54634239417395    3.79746229989480    5.16993805182664
H        -3.10173439990103    4.47908668417397    4.46082457932346
O        -0.57233546394353    3.74555649010814    5.41707483857306
C         0.46776105297339    4.49553202150753    5.92935240621962
C         1.79561895001736    4.16054262107945    5.72221331043367
H         2.03371622351118    3.27211351181191    5.15624506050049
C         2.79103435775869    4.96746810673940    6.24845438349114
H         3.82604800766927    4.70799938643296    6.08665615477930
C         2.46137961717348    6.09929849625130    6.97428441621951
H         3.23958594783093    6.72539088445489    7.38084715710598
C         1.13023520257401    6.42631055139088    7.17686173282910
H         0.86873857827307    7.30691331631604    7.74203053771244
C         0.12738491172653    5.62686665721762    6.65754845331926
H        -0.91435931351383    5.86501610884747    6.80332503401606
O         0.10504165058777    2.57728035756498    3.24496354448243
C        -0.31895503051493    3.69728728478304    2.50879122004088
C         0.48263699051975    4.82774991319728    2.48535942185864
H         1.39993926331288    4.84433853394373    3.05511872437984
C         0.09317715599231    5.92132882742413    1.73078423588650
H         0.71653467354715    6.80154782393045    1.71023481560690
C        -1.09076445166559    5.88702667161670    1.01302718475797
H        -1.39342152686591    6.74280407702830    0.43036863982495
C        -1.88622308406135    4.75411201621031    1.04488387067292
H        -2.80983695249112    4.72333196454463    0.48803165538978
C        -1.50457572022368    3.65321358037406    1.79397217415403
H        -2.11714150561277    2.76549744212031    1.82813325583062
C         1.16179862146420   -0.63578848167882    7.26138902905179
H         1.64933124997361   -1.59395049241551    7.23047918634529
C         1.80240692743456    0.60382092426764    7.45738125383985
H         2.86485199962431    0.76083614636395    7.52234473007835
C         0.81518886554822    1.59732213018334    7.58366776641021
H         0.98662342821552    2.62861980020484    7.84037437050679
C        -0.45872572288708    0.96026758386575    7.51648680441865
H        -1.40399056485587    1.44010779118421    7.70795139858207
C        -0.24243131208419   -0.41539453191233    7.33192702382842
H        -0.99612595021420   -1.18445133012155    7.35282915926966
C        -1.98120856570679   -1.26491360646939    4.27936759710308
H        -2.59167437878878   -0.40127347881629    4.02578395923439
H        -2.25564358035346   -1.62171837175513    5.26933826739030
H        -2.16129394426325   -2.05881481988740    3.55456364458330
C         0.01249268097686   -0.48718719250233    2.44818388933109
H        -0.54991164008040    0.39659536022843    2.15683222234405
H        -0.33955569952654   -1.34837340869323    1.87975413315643
H         1.06619831865737   -0.31695233062892    2.23666822832548
C         0.61634641698483   -2.41893798378855    4.42331981411296
H         1.69347075982725   -2.27174721608076    4.37826369296314
H         0.30830171687870   -3.09576715408518    3.62748660033047
H         0.35847406001603   -2.85567538100031    5.38514630325802

