45
CSD_code = SASXEP | q = 0 | S = 0 | Stoichiometry = C22H18Cl2S2Zr | MND = 12
Zr       -0.71269603798127   -0.07027952486073    4.41462973673867
Cl        3.12414235553511    1.11429569296945   10.57405420504706
Cl        5.13597662961987    1.23816976180801    0.16221965486919
S         1.03648694529419   -1.62910218319769    5.35134082130685
S         0.30724737034748    2.20346740517695    4.02406610667890
C        -1.40219355122372    1.04906977240771    6.53381123616031
C        -1.51991615610726   -0.34044187932964    6.76082452641996
C        -2.55137551994902   -0.83367462806667    5.92855472788269
C        -3.08776441927218    0.25851067994340    5.20766528259795
C        -2.36991506826647    1.41660218530561    5.56780144261082
C         0.00829994625486   -1.18040517392079    2.30240524174359
C        -0.65841506867548    0.00554980316013    1.92106773408793
C        -2.01971694908220   -0.12278306007894    2.28185180871938
C        -2.19705174100023   -1.40042511096614    2.86173070606119
C        -0.94515874053879   -2.04700236816062    2.88956062231870
C         1.62410321585633   -0.84087329126999    6.80856059750026
C         1.96016641864246   -1.61471237180633    7.91861596749932
C         2.42209212894263   -1.01804700664445    9.07462676953787
C         2.55674652792105    0.36130375059978    9.12440561006629
C         2.24527018116090    1.14342762955639    8.02221052525438
C         1.78179581577057    0.54474928082795    6.86570577424591
C         1.66970222958143    1.91761576166409    2.95058774889472
C         2.46624497216364    0.77932777313067    3.08436789263255
C         3.53228042910224    0.57353790667554    2.22877783275556
C         3.80979703834731    1.50502284172161    1.23943892335994
C         3.03799046126332    2.64969958972874    1.10808613787781
C         1.97423422618795    2.85439813832254    1.96383432159312
H        -0.78248253229296    1.73659335856312    7.09641899142611
H        -1.01220095973948   -0.90128639367548    7.53673716101457
H        -2.95164408757717   -1.84110885934009    5.95582715660885
H        -3.97704974376381    0.23676486739779    4.58988295287600
H        -2.59316904578199    2.43022666199461    5.25664953401586
H         1.03212898872829   -1.44111413339910    2.06342996620078
H        -0.23525332291843    0.80824833517405    1.32863368203753
H        -2.80642988287244    0.57631918111638    2.02076673260279
H        -3.14576837232265   -1.85590762152836    3.11751878345899
H        -0.76045500185651   -3.07070923461489    3.19295115904630
H         1.85199839966410   -2.68718749198521    7.86217387968142
H         2.67623189530425   -1.61798635037316    9.93414401401842
H         2.36784783328282    2.21434983013146    8.06685616527096
H         1.55364151289857    1.15628961301877    5.99390472632499
H         2.25823408917894    0.05754607033485    3.87285382453820
H         4.14842520421344   -0.30601192229798    2.33193999280534
H         3.26818514536676    3.37256875117010    0.34138657389987
H         1.36488624034105    3.74110396161168    1.87652274920921

