79
CSD_code = SASYUI | q = 1 | S = 0 | Stoichiometry = C30H42N2O2P2Re(1+) | MND = 6
N         7.32158293287171    0.36972033175238   16.90387824951041
C         5.99034156059769    0.30186061967186   16.84550655262060
H         5.49087008981969    1.12904928216568   16.35811535273587
C         5.25960072521164   -0.74351195560626   17.36491191343111
H         4.18405376750554   -0.73831989474471   17.28817858280997
C         5.92224525664439   -1.80577776524306   17.98374906196862
C         7.30478154827933   -1.73246128014433   18.04391555775788
H         7.85640190788942   -2.53234560650633   18.50988917192894
C         7.97918501765411   -0.63634105261269   17.50937424681212
C         9.43740475276137   -0.49058978788713   17.55188193583453
C        10.27535388535550   -1.38843924839221   18.20775692468602
H         9.86170168656197   -2.23655067118145   18.72793883015734
C        11.64812045844370   -1.19506743825777   18.21056657438141
C        12.13057212623951   -0.08249630873511   17.52195432633438
H        13.18854920159562    0.12086499355702   17.47908770444821
C        11.24277263819908    0.76859206040167   16.90017688943133
H        11.60228403474590    1.64052803572900   16.36881907355130
N         9.92285821328914    0.58945924926456   16.91061254985667
C         5.16544523971393   -2.95676936151545   18.55091918500507
H         5.83388709682727   -3.69818709742787   18.97990218914145
H         4.56552763670151   -3.43086987532076   17.77535480554628
H         4.48090729269160   -2.61068962895466   19.32440841109733
C        12.56901902953855   -2.13946412356401   18.90209614780014
H        12.99454245157106   -2.83522811099791   18.17822042741153
H        12.04422362277424   -2.71604175638173   19.65923761380507
H        13.39332569566227   -1.60274247041403   19.36552971025156
Re        8.49901228571057    1.93695274371868   16.14107989004960
C         7.01883150547113    3.05730342458615   15.58476608756235
C         9.77921698385634    3.24992247350723   15.51406981670845
O         6.09522502579897    3.69024281848780   15.31720316871826
O        10.58848652709800    3.98440193377986   15.15418541233936
P         8.41753943835778    2.86142463509005   18.42344392438025
C         8.97524574403503    1.68290738527574   19.69030682905952
C         8.08670117913485    0.74536554724603   20.21294838689951
H         7.03964527585312    0.78140441827719   19.94441773454090
C         8.53104049017000   -0.22844468011103   21.08845767464942
H         7.83039232366716   -0.94243599545426   21.49566240405560
C         9.86906393105536   -0.28738354210366   21.44117416789284
H        10.21538056207758   -1.04767845250812   22.12442535519031
C        10.76061611533381    0.63636070671165   20.92012299230271
H        11.80341397130383    0.59612771509590   21.19660233352369
C        10.32023717585006    1.61258858833255   20.04558038240689
H        11.02420964283766    2.32334148056474   19.63804193203396
C         6.74454605361949    3.38020045020873   18.98605586459481
H         6.41032507324184    4.13932396812006   18.27287428796090
H         6.07482647690410    2.52242956544422   18.87149543065877
C         6.69790520662758    3.91228995703046   20.41345088727660
H         7.10010975084069    3.18719800670737   21.11888350489091
H         5.66797700818517    4.12373123601888   20.69243722991573
H         7.26548194855220    4.83393092379291   20.50854175653276
C         9.46465394752812    4.34762377913999   18.69744162433629
H         9.53945201552945    4.54793575102856   19.76974368399413
H        10.46196337465644    4.10697581968348   18.31824864431564
C         8.91552937601143    5.54799170125057   17.93475364260927
H         8.66809955668572    5.25981874784295   16.91187743977635
H         9.65902419266861    6.34013834990511   17.89916803675831
H         8.02199600390010    5.94503056713921   18.40851985322858
P         8.59222420855739    0.78900905579778   13.94956564419906
C         6.99940989756086   -0.01048894773121   13.47764663086732
H         6.81223436609904   -0.80022470074003   14.21234140180266
H         6.22649863570352    0.75107368193652   13.61861854414090
C         6.93338675400394   -0.57599365280857   12.06421266248266
H         6.97462513682031    0.21676189978361   11.32277837376279
H         5.99361153875450   -1.10785837734304   11.93023714205279
H         7.74447030418973   -1.27436886703433   11.87191519179548
C         9.87934047710378   -0.51643091708428   13.70217101104720
H        10.02665622110796   -0.63505896567737   12.62492739247069
H        10.80843904483752   -0.11146623787660   14.11602136184241
C         9.56731445660822   -1.86657377274348   14.33560337960894
H         9.37729038975516   -1.77487197996052   15.40264598094249
H        10.41255464188573   -2.53947607824842   14.20319576162951
H         8.69712349771964   -2.32645743004471   13.87341138855443
C         9.00458364298913    1.88807659787895   12.53411424711015
H        10.02630919865591    2.24041884048788   12.70342493932501
H         8.99861632799443    1.28828527232705   11.62017640683028
C         8.06360841288218    3.07755312525407   12.40665291751450
H         7.03799312145751    2.75378226258024   12.24804665162970
H         8.35979381851917    3.69755169644819   11.56428551553362
H         8.09960987497952    3.68265633240476   13.31124508732360

