91
CSD_code = SASZET | q = 1 | S = 0 | Stoichiometry = C42H42N2O2P2Re(1+) | MND = 6
C         0.36026642342105    0.13127071015653   11.60253534388307
H        -0.59470102272258   -0.12672639921077   11.16316533550622
C         0.80224596419080   -0.51550307107017   12.73521759854820
H         0.19481486725185   -1.28263232448190   13.18838914186644
C         2.03760904140803   -0.16847436540118   13.28657830485387
C         2.75494430179241    0.82668178029914   12.64144555274851
H         3.71247707902665    1.12612736753538   13.03462935439686
C         2.24694352453801    1.44071842423645   11.49799721642583
C         2.95412487269047    2.50038921509190   10.77444268122140
C         4.20184509490565    2.98409676110085   11.15721750269586
H         4.69964916835357    2.58001158082882   12.02318468273100
C         4.82021344468024    3.98627376010252   10.42776392015992
C         4.13149379403498    4.47762367796561    9.31979094906683
H         4.55649324089507    5.25974741049071    8.71168895145114
C         2.89827302378851    3.95404400644208    9.00063909781388
H         2.35267610548755    4.32743253017127    8.14440281145229
C         2.54770348238052   -0.84444838386442   14.51237298530717
H         3.51803459801716   -0.45372825087440   14.80636564669971
H         2.63774656086394   -1.91622521767285   14.34011385925267
H         1.84834757913288   -0.70606969905361   15.33594743269150
C         6.16206959340338    4.51700043221687   10.79730505773770
H         6.51368344177355    4.09005090921005   11.73247774416054
H         6.12687416562482    5.60066753095323   10.89375397343424
H         6.88122115598687    4.28157836955511   10.01353050265265
C        -1.26953615974119    1.24070997102445    9.01079535676299
C         0.13529781706727    3.20733822887636    7.67494105570325
C         3.48748431341435    0.81543852727792    7.95286392670568
C         4.38750109374428    0.30257944661620    8.88076983599490
H         4.06319249772734   -0.42236848190558    9.61483387456965
C         5.70957663329611    0.71204836764815    8.86198176403430
H         6.40710609235854    0.30215487359774    9.57732773012201
C         6.13885526819375    1.63921407928845    7.92751598437064
H         7.17305006226280    1.94794463617627    7.91101832680487
C         5.24217805276338    2.16580724735234    7.01058603369033
H         5.57490044746780    2.88931963208823    6.28183591802306
C         3.92024973611368    1.76514728354247    7.02891383472823
H         3.21001419775391    2.17350936248271    6.32181019511303
C         1.31207447369357    0.15793304626049    6.24089565683687
C         2.22163194168688   -0.47863576395593    5.40036614374874
H         3.19178847249076   -0.77572825062409    5.77598092731779
C         1.88551832737477   -0.71918573360707    4.08131978295171
H         2.59280637867698   -1.20775339881275    3.42830202792118
C         0.64414123148147   -0.33490547300796    3.59814932731058
H         0.38746645720611   -0.52367436758277    2.56710067872481
C        -0.26522326904629    0.29032966889374    4.43556954931071
H        -1.23242784626134    0.58685271085207    4.06021990880244
C         0.06581860940349    0.53767694827203    5.75606607799427
H        -0.63293259647964    1.02591933331322    6.42400332123389
C         1.66451075113821   -1.31029883386968    8.62973629472941
H         2.43576958459022   -1.87996156580561    8.10104625106303
H         1.90749321991548   -1.30448683504549    9.69639769735025
C         0.29029236045092   -1.92910877120816    8.40916561653883
H        -0.48633257766811   -1.30780685845591    8.85097073571246
H         0.24418579224981   -2.91821660276979    8.85932840879286
H         0.08024938344061   -2.02400835613853    7.34616822282548
C         0.73320605342284    4.49010428131108   11.85858010888472
C         1.12415979728825    3.93296784753207   13.07257371997056
H         0.57734897590709    3.09998082445381   13.49290691823839
C         2.21236995916729    4.44855019741061   13.75448780060768
H         2.50283973847169    4.01856379344641   14.70169796218344
C         2.92741760046179    5.50977073522545   13.22530818337660
H         3.77554018061566    5.90923224386104   13.76000542767818
C         2.55234252996091    6.05933797350215   12.00890271013845
H         3.10863723494545    6.88629732855747   11.59356185047647
C         1.46770495413191    5.54789049684171   11.32329286019341
H         1.17695544212434    5.96308721282809   10.36707959820641
C        -1.52236898783266    5.10184563960801   10.14989440216130
C        -2.30420266846271    4.83109387384728    9.03036432787900
H        -2.25365040543830    3.84689115257986    8.57960942715824
C        -3.12659771574417    5.81132251384507    8.50726014112794
H        -3.73033850957540    5.59963411261522    7.63837213244700
C        -3.17161549442149    7.06442062259359    9.09805480099044
H        -3.80879271270176    7.83244764404962    8.68730413173152
C        -2.40057498673399    7.33334556494536   10.21729498051623
H        -2.44112967048309    8.30740888988765   10.68109999527947
C        -1.57897481926950    6.35566383542805   10.75010256027771
H        -0.98660635414055    6.56924188989443   11.62892876163613
C        -1.75704533902886    2.97361896582943   11.99982584376420
H        -2.53976221125157    2.54012779392399   11.36789593943762
H        -1.26371751877149    2.14810217800343   12.52176996014120
C        -2.35969923335650    3.96232222143436   12.98972293992684
H        -1.58877653985385    4.45190548706995   13.58217070970614
H        -3.03169448373590    3.44012584300618   13.66745385375767
H        -2.92984779053312    4.72811279271027   12.46891296818057
Re        0.44235154162387    2.11621630809202    9.25000151895052
P         1.71480888357413    0.42049514374030    7.99069575214503
P        -0.54901326495413    3.72846086668327   10.82758710755569
N         1.05310651834048    1.08981708159700   10.98405106379463
N         2.30994733872996    2.98468681487370    9.69808005788474
O        -2.30125937248786    0.73430151513664    8.91955702953037
O         0.02748108236336    3.88541748798786    6.75295634144058

