56
CSD_code = SASZOB | q = 0 | S = 0 | Stoichiometry = C18H30NO6Rh | MND = 6
Rh        4.66998726363707    0.90224686349573    2.80032848568481
O         6.58418030195112    1.10151289045833    3.49194451563782
O         5.12981471563449   -0.99822528847140    2.30112427687263
O         4.61494887176043   -0.72066074326088    6.78853616981783
O         6.40965328940566    0.66278409761335    6.53658350675003
O         1.90141904799293    2.49511056259895    4.85451960391846
O         2.03618289848839    3.51416483791136    2.86690282149648
N         4.35611785903586    1.17647965894101    5.70268611015435
H         3.37718613993389    0.93980084060275    5.78146700517313
C         8.73843407099163    0.62440444073746    4.29047796151327
C         7.46052713792204    0.20412320066671    3.60960090622328
C         7.33494287006959   -1.12143197979193    3.18165949755050
C         6.20114970550305   -1.62452006301698    2.55055089123550
C         6.24112932652328   -3.06994585784345    2.09942436120809
C         5.99493654844331   -1.34095449114045    8.70759621623574
C         4.30517950461720   -2.87674066720310    7.65833762597286
C         6.41818602844895   -2.32051904755870    6.42254155249447
C         5.35983430497889   -1.80047655330580    7.39506128418556
C         5.24439917603082    0.39338086893578    6.36571809313506
C         4.67473739970465    2.51823402568323    5.23595701254919
C         4.26352578828659    3.58984281861999    6.24707604573702
C         4.04716826162117    2.69304300758134    3.85966010301542
C         4.81305488814888    3.02130844520550    2.73734638695372
C         2.58971567499882    2.94707815360246    3.77990727913077
C         0.50492199269535    2.74678837139837    4.83678096856665
C         2.65233628676864    0.18552024549266    2.49340982521199
C         3.05722890342086    0.87879042411882    1.37039314042199
H         9.52194187002299   -0.11736686210276    4.17763918378821
H         8.50939120313835    0.76194812247018    5.34709546403505
H         9.06970480290450    1.58204200804460    3.89548088311698
H         8.16596323535748   -1.79118871301077    3.33329716681652
H         6.52604583838008   -3.71655088545169    2.92590940958936
H         6.97809210990515   -3.18463309459252    1.30716200104689
H         5.26548191921362   -3.36542651810189    1.72227626994777
H         6.72067001132074   -0.55569063209764    8.51600995352903
H         6.49540953271029   -2.17817025997661    9.18609450446698
H         5.22936108548698   -0.95619828123401    9.37803270950184
H         4.76650824334289   -3.74517726264428    8.11910434346567
H         3.83830569256071   -3.17439188040976    6.72325964540004
H         3.53535331405021   -2.48971944020969    8.32057456943334
H         7.17995589024928   -1.56457782403037    6.25564809051891
H         5.95480146818683   -2.56151285144445    5.46800816818445
H         6.88558496612446   -3.21349746826311    6.82843724785443
H         5.76414161800515    2.54247871454401    5.12649338426406
H         4.46335385606886    4.57659016682241    5.83716580094144
H         4.84375468051573    3.46481450146911    7.15827060636123
H         3.20833671243814    3.51605146458568    6.49245996257932
H         4.30671896017824    3.46605722393937    1.88682710391636
H         5.85147830172666    3.30284840152890    2.86456813671570
H         0.31350995364195    3.82168242819706    4.82270699466774
H         0.10143134427912    2.29882316193254    5.74163431296690
H         0.04721385520315    2.30202306450178    3.95030849921088
H         1.93516185570510    0.61498108175621    3.18047178303541
H         2.68883698650092   -0.89867546091152    2.50170679367260
H         3.41239025326211    0.33711099583367    0.49934966985463
H         2.66900218257682    1.87198703682765    1.17831569425073

