97
CSD_code = SASZUJ | q = 1 | S = 0 | Stoichiometry = C44H46N2O2P2Re(1+) | MND = 6
N         9.77809984900675   13.46314271631239   24.84930618003503
C        10.19304916029722   12.20166035417035   24.95988915628417
H        10.27037263043402   11.80717894911574   25.96386351932578
C        10.52001783644714   11.41231612629729   23.87974327383323
H        10.85341773832966   10.39920876266138   24.03668725263059
C        10.43044691084283   11.93925760340397   22.59141842582503
C         9.98831969272760   13.24810609645244   22.47834647669053
H         9.90861697139852   13.69463536992513   21.50060475796345
C         9.66807345180584   13.98703975351158   23.61479190437816
C         9.20630271837217   15.37761142254364   23.56483881364407
C         8.93477763678850   16.04908086603759   22.37508795731348
H         9.05529076795237   15.54691134438482   21.42902668026759
C         8.49034391692962   17.36190193725628   22.39355101752199
C         8.34524069458888   17.96169843794140   23.64442777143285
H         8.00574566224569   18.98144231657678   23.72837278375887
C         8.62603796708878   17.23672451101091   24.78121993492189
H         8.50635413409080   17.68826373137433   25.75659743861304
N         9.04602651069549   15.97224348650779   24.76120796458327
C        10.80650460957139   11.12624419208165   21.40128690135861
H        11.85465823975368   10.83766207370574   21.46847353671824
H        10.65311553559181   11.67818338966963   20.47797714109503
H        10.21765581929608   10.21075834207586   21.36685219761132
C         8.16816302498767   18.10493990965539   21.14338369947222
H         8.37426395083843   17.50611671222628   20.26044174390044
H         8.74857175877709   19.02477527391911   21.08931460824673
H         7.11502531554104   18.38312626448508   21.14110784397782
Re        9.38559573469440   14.76812844302979   26.45806608128764
C         9.77718516891538   13.48762229528408   27.86097178193626
C         8.95275693827708   16.13106131377635   27.76817273923501
O        10.05410988403909   12.69744877784972   28.65134879248800
O         8.65230805798204   16.96696243416640   28.50081163918383
P        11.76255296445619   15.39366734107931   26.26442485406813
C        12.77647334416132   15.46756744068870   27.76810434615168
C        14.16386789458309   15.52738828509545   27.65959618992626
H        14.63347654540164   15.48769679095318   26.68559646416361
C        14.93906463157360   15.62517714183612   28.79933641465027
H        16.01441857270278   15.66917317244813   28.71491970520644
C        14.33739816514370   15.66577410253584   30.04794816991569
H        14.94699215138109   15.74106019297253   30.93525309685625
C        12.95786777666573   15.60748044967155   30.15751363773396
H        12.48989753606293   15.63768287396975   31.12933811996981
C        12.17553094817628   15.50867592667766   29.02016269140745
H        11.09615536205516   15.45984375647315   29.08925516897108
C        12.68604920896760   14.21463248033345   25.23446151377829
C        13.08468507315694   13.01721854406976   25.82629228293743
H        12.89234878082071   12.86151060611221   26.87982946818098
C        13.72857765598001   12.05191586250378   25.07661502251374
H        14.04952349590934   11.13308251479470   25.54336320311366
C        13.96096589178685   12.26413308720769   23.72626753877814
H        14.46824747507341   11.51216768528865   23.14101317091766
C        13.54683647784726   13.44251183750200   23.12853345221629
H        13.72597294749152   13.60814368272867   22.07636632961279
C        12.90712136869248   14.41595412040120   23.87658985392022
H        12.58932287895603   15.33381777192289   23.40069092608428
C        12.11676285460006   17.03263082012428   25.50412381459776
H        13.18523308494288   17.08508858266268   25.27165090146086
H        11.55624413156809   17.12086680738891   24.56787068337149
C        11.71084705714626   18.15258470312155   26.46059908536112
H        12.39285147800211   18.16181349096745   27.31318908339545
H        10.70920072319628   17.94885143767149   26.84992779292171
C        11.73160309753254   19.51014411390452   25.77125989872673
H        12.72585852239784   19.72977138895396   25.38878675743052
H        11.45481671151420   20.29335356329207   26.47149614072440
H        11.03049969243249   19.53124764273739   24.93836613370742
P         7.01422255943577   14.13322137146244   26.23238720375635
C         5.95653023399793   14.15317566740415   27.70732973545761
C         4.57253063088630   14.09078550472307   27.56288370678502
H         4.13099337330051   14.07326088068611   26.57520659796041
C         3.76482248329902   14.06366144556259   28.68380992845087
H         2.69211018713215   14.01776564626608   28.57144247811661
C         4.33049865882128   14.09602992513196   29.94937293946209
H         3.69559572904581   14.07568775431221   30.82176591143357
C         5.70661026887033   14.15671068560671   30.09476486121066
H         6.14668672899646   14.18326546930757   31.07964314348335
C         6.52134029643089   14.18517765879176   28.97640945930499
H         7.59850443288176   14.23499331230802   29.07346120771332
C         6.12786576059768   15.24827681303698   25.10337252082292
C         5.70624109733671   16.47724549160791   25.60810167962985
H         5.85624953126089   16.69461220551194   26.65754924849286
C         5.09324921716734   17.39604027295364   24.77825168597937
H         4.75403560020124   18.33975311168903   25.17758283058534
C         4.91555728365648   17.10555641443209   23.43421029615897
H         4.43303919481043   17.82154200660874   22.78625075771330
C         5.35271811704134   15.89514424203784   22.92308940437705
H         5.21630997184564   15.66842183758494   21.87589865912341
C         5.96111232542959   14.96800704580831   23.75166643053501
H         6.29738640782393   14.02460774645794   23.34310303327717
C         6.67701467555783   12.45155549198088   25.56303359206330
H         5.61626571755065   12.38787109685171   25.29994250878808
H         7.26677658901985   12.30482142894997   24.65243869240818
C         7.04711960410310   11.39097384821516   26.59837902615870
H         8.03824511598343   11.61353919299549   27.00396533922061
H         6.34034630192866   11.43768437734531   27.42930205141505
C         7.03719820556270    9.99358976008049   25.99353531523858
H         6.05216298023403    9.75463469953990   25.59898041078131
H         7.29115148133717    9.25394039122816   26.74770614876367
H         7.75979645736893    9.91846579660824   25.18243128618843

