51
CSD_code = SATEAN | q = 0 | S = 0 | Stoichiometry = C20H24N4NiO2 | MND = 6
C       -11.47367793776327   10.46386536983015    1.74923465771990
C        -6.71388233668447    7.48995457633675    3.83475662568765
C       -12.84349764096540   10.84138923575684    1.65617614299296
C       -13.23103088784291   12.01676315706683    1.07888383884924
C       -12.28914467737929   12.88950877487305    0.51979376469934
C       -10.96193993311733   12.55705682877571    0.56261752536091
C       -10.51857024509179   11.37246805737820    1.17530286242601
C        -9.12877423053259   11.08045990390965    1.18850423325004
C        -7.11931508163260    9.93814528308764    1.67392947178309
C        -6.41669268169610    9.81773955643798    3.03270011778540
H        -7.05778843593464    9.21472292851132    4.86199918269275
H        -6.90915374336205    7.02477042160031    4.80298589829759
H        -5.63648309837325    7.39253485092584    3.62766024856610
H       -13.56804682268685   10.16764203329502    2.08973074085885
H       -14.27943309581756   12.28136071531309    1.05119924953816
H       -12.61161946496087   13.81384299200744    0.06452936955890
H       -10.22290951885611   13.22569694912611    0.13965585520234
H        -8.51759021031694   11.69940272478360    0.52277188644758
H        -6.66403056851232   10.75745535382585    1.09954806061996
H        -6.98511837953844    9.01153336610520    1.10291973489221
H        -6.44689262563672   10.80061006159494    3.50732160814733
H        -5.36631376071462    9.52198621161053    2.88221627602600
Ni       -9.30879891841560    9.30876414952415    3.28998924676900
N        -8.53431586336309   10.16162754118715    1.87052004705331
N        -7.12177778003587    8.88378400931265    3.90601324576847
O       -11.15369915910149    9.35038207868223    2.27530877358161
N       -10.16157214036455    8.53432739692767    4.70952921955420
N        -8.88375471779161    7.12175354945215    2.67398304387031
O        -9.35037657017762   11.15368886929179    4.30468958732870
C        -7.48993248278340    6.71384866417046    2.74525546899967
C       -11.08040737603350    9.12878515906407    5.39154006131064
C        -9.93814423241946    7.11931241995262    4.90606450324152
C        -9.81773816904157    6.41669619897366    3.54728658686020
H        -9.21467749134906    7.05776896795117    1.71799232034043
C       -10.46386735766083   11.47367595184559    4.83074946640741
H        -7.02473527342147    6.90912087141465    1.77703199898168
H        -7.39252378439340    5.63644844374869    2.95235975411723
C       -11.37245928707770   10.51857122979527    5.40469515935309
H       -11.69944629903628    8.51758412515188    6.05716805848124
H       -10.75746548179162    6.66404367481990    5.48044219975162
H        -9.01153842955937    6.98508422105465    5.47707126664294
H       -10.80060274333449    6.44692790380541    3.07265525734920
H        -9.52201451910617    5.36630617195663    3.69775299939824
C       -10.84138281765479   12.84349873703580    4.92384063401627
C       -12.55706711258972   10.96193194420021    6.01735196067053
C       -12.01676014458941   13.23102999476992    5.50113369117920
H       -10.16761879647175   13.56805266876076    4.49032027262319
C       -12.88951434676967   12.28913768578611    6.06019988995577
H       -13.22570240648941   10.22289704183053    6.44031401859435
H       -12.28135398970643   14.27943271518920    5.52883160487279
H       -13.81384693205363   12.61160826219579    6.51547231152416

