55
CSD_code = SATGIG | q = 0 | S = 0 | Stoichiometry = C27H24AuClN2 | MND = 2
Au        7.17985806980243    8.49571935692715   -1.25951186916536
Cl        5.33745581450253    8.35983175423286   -2.53674638089786
N         9.82571041922724    7.72514312345295   -0.04276564006796
N         9.15355073573972    9.60749422558375    0.72594688651628
C         8.82419569022965    8.61694947529375   -0.11938424415266
C        10.77751332906842    8.15245438611765    0.84048165644274
H        11.65935824322379    7.58470606602996    1.05237160649489
C        10.34998686027345    9.33975243596567    1.33049786343939
H        10.79645812946903   10.00613753917320    2.03865037664689
C         8.33648439469386   10.77708575984383    1.00288960372845
H         7.65093841715812   10.88997639574643    0.15312030303687
C         9.23593378180927   11.99351016547374    1.08341519104281
C         9.93937438657578   12.40648274565281   -0.08497443890936
C        10.82510092619559   13.51515482327151    0.00637677080763
C        10.97356080914867   14.18969137198476    1.23601909350783
H        11.64785561942494   15.03202442833201    1.28822135129498
C        10.27540109596304   13.78428824514453    2.33522203962363
H        10.38236628969623   14.30087939214978    3.27737073310745
C         9.41314744465643   12.68092717247811    2.25649052925975
H         8.88761976206170   12.38444784719488    3.15004228714234
C        11.54337004032601   13.92739565516711   -1.13547611681610
H        12.21240144558868   14.77113454389662   -1.04446392700621
C        11.39662328040206   13.28045306616652   -2.32900986660690
H        11.94941494028565   13.60082978582466   -3.19947699934903
C        10.51278963179466   12.19711079369019   -2.42867723943533
H        10.38841863301731   11.69826994122666   -3.37834346282228
C         9.80307719413338   11.77151764013445   -1.33998277369581
H         9.12291450049198   10.94211617020348   -1.45918634791916
C         7.48912538511557   10.49904216291627    2.24383874908176
H         6.84065467811175    9.64864272102477    2.04255126440323
H         6.86589659989308   11.35792677373340    2.47491072974743
H         8.11226739587797   10.25893748203741    3.10258185325106
C         9.91493547402855    6.49803355339237   -0.81636360700928
H         8.89632963713035    6.26293727116991   -1.15103288800305
C         9.60090720857129    4.97911486663335    1.18431439357705
C        10.09461769661963    3.97654119491933    2.06358838757772
C        11.35758954747413    3.39731902245923    1.82181306677936
H        11.71698706741419    2.63454502976789    2.49704285615232
C        12.10655995559663    3.79402383884362    0.75331964956764
H        13.07182250696403    3.34963925354848    0.56163361051324
C        11.63357731802274    4.79513489037021   -0.10759835642213
H        12.26023241884710    5.08946614298728   -0.93415297137364
C         9.31348694897512    3.57270616920390    3.16651792995742
H         9.70766561226866    2.81059083837585    3.82347002985167
C         8.08736274550798    4.12678149912226    3.39935539832836
H         7.49436034450334    3.81357914425312    4.24563404620889
C         7.58856691420933    5.10334784407465    2.52630850395203
H         6.61165113053622    5.52734660882284    2.70532424586671
C         8.32167703883269    5.51795673466924    1.44894219351524
H         7.89814692627473    6.26222691762639    0.79212527002261
C        10.75879943343025    6.76431066252040   -2.06218650826202
H        11.75270861042124    7.11914622321003   -1.79834005113763
H        10.26919000942882    7.53004629148358   -2.66061990521423
H        10.84140823324503    5.86222374694049   -2.66128279612902
C        10.41239327740142    5.38764880924187    0.08648792025195

