46
CSD_code = SATKOO | q = 0 | S = 0 | Stoichiometry = C14H25NO5Zn | MND = 6
Zn        2.09116944678061    4.28896028636887    2.87794513701960
O         3.06600785001923    4.15017258525938    4.90314496666815
H         2.32874677779185    3.64558131700386    5.26193405621086
C         4.18392250446382    3.29971977677854    4.73961278426307
H         3.87362637404578    2.25290257605005    4.70291954006369
H         4.86818111912584    3.43852494589640    5.58913760686723
C         4.89727695550171    3.68786967829076    3.44832179281577
H         5.11179192626065    4.75543158022648    3.51191672071245
H         5.84064923613658    3.12883561072195    3.35693391653958
N         4.03895280217264    3.47858587056089    2.28644011001930
C         4.00196961920958    2.06931818313235    1.91487363128470
H         3.34106641180880    1.94727119574611    1.06001142792853
H         3.60599880020120    1.47003716435398    2.72908237628185
H         5.00415626585309    1.70396094434554    1.65083611169960
C         4.55051782330660    4.23530447388424    1.14827405108095
H         4.56908738996354    5.29116981305858    1.39774190864386
H         3.87762709862566    4.09956332667772    0.30570819401380
H         5.55851809196699    3.90025133132332    0.86958332165958
C        -0.21405110990076    0.83027038853158    3.81239982871574
H         0.44192734211712    0.52247392620840    4.62302734221079
H        -0.44765747007306   -0.02545215507389    3.18437448307350
H        -1.14264706624519    1.20658043644022    4.23714556677719
C         0.44266800547360    1.92992881996532    2.99802782090686
C        -0.15595264345119    2.25887469394264    1.78338407399914
H        -1.04343610873337    1.71639764752313    1.49549983900281
C         0.27467360707267    3.29091581832494    0.94916426736254
C        -0.54441554017212    3.54885760866924   -0.30189234536208
H        -1.53464835690675    3.90101496808014   -0.02207525363556
H        -0.65807564045715    2.63313625124748   -0.87705777454298
H        -0.05612284193712    4.30632555019631   -0.90898431315610
O         1.48164508980526    2.45776015393662    3.47580612705012
O         1.28639179699873    4.01806306568493    1.13312174656796
C        -1.32780529364027    6.51126755306200    4.15803672463810
H        -1.90486786221581    6.97065486003552    3.35890829640784
H        -1.29608497000794    7.20283198059198    4.99695064505789
H        -1.80970788423007    5.58809879429267    4.46800511493578
C         0.08118453571856    6.21633719105528    3.67765567646433
C         0.83788046958061    7.29546385125488    3.22193723538041
H         0.38841713175655    8.27627959233068    3.23346626841959
C         2.13699412074679    7.16953862159101    2.73473903410140
C         2.82245651726412    8.44101552324804    2.26716870434003
H         3.85020397612898    8.22718792446148    1.98667021792753
H         2.80887808468710    9.18763612342651    3.05728880234071
H         2.29479462014790    8.84540280648229    1.40619339832053
O         0.47229298854332    5.02190420602237    3.73450481756730
O         2.79419800872510    6.09887313885219    2.64901600131089

