124
CSD_code = SATKIJ | q = 0 | S = 0 | Stoichiometry = C52H66Cl2HfO2Si | MND = 12
Hf        8.61525063175329    2.86639741291209    5.19031984133442
Cl       10.12304377023900    1.28300141713547    4.42662565452160
Si        8.61523304703730    6.15294766057586    5.19032472279492
O         5.34326267336080    5.66955920649044    5.38830335389197
C         7.87916034831294    4.82188953013572    4.03712374722371
C         8.70305059243642    4.02809231148633    3.16577900025509
C         7.98866119180886    2.88096654394062    2.75273576268965
C         6.68855716709792    2.93222916449675    3.32394305818675
C         5.56404653066658    2.09009542971025    3.15401022985996
C         4.38624671906090    2.48280322796655    3.75007375707957
C         4.28598962898318    3.66226468925892    4.49854131606494
C         5.37249254147715    4.48662223867003    4.69047060705719
C         6.61910953257712    4.12616216646661    4.12493870292598
C        10.06515206993813    4.35225890891989    2.62065908325209
C         5.66321971143201    0.85254596163462    2.36817664873635
C         4.65133149104828    0.50700027746283    1.47532469686875
C         4.73340044106546   -0.65328624854387    0.72526361204543
C         5.85868038745882   -1.46046525979975    0.88092796484257
C         6.87843123396981   -1.14938801364510    1.76757548484743
C         6.76198173211630    0.01686944752378    2.51493951298716
C         3.65294605524595   -1.07788755182073   -0.25926416077720
C         4.25867407538403   -1.15792189626673   -1.66745683578327
C         3.11103641116135   -2.45392087289131    0.15306351538013
C         2.47646592696714   -0.09890345447069   -0.30168995179107
C         8.11183017452192   -2.02127061069300    1.94542410817896
C         8.09153828906158   -3.26870574176235    1.05729639568324
C         9.35781197491259   -1.19740906060105    1.58937065713671
C         8.19450730253384   -2.47155013402475    3.40871002534233
C         4.10584321494453    6.13122698492450    5.86976279732758
C         9.69304796226227    7.38587628018220    4.21062733354338
H         8.31171977574115    2.19342037257246    1.98373182592844
H         3.50828105935851    1.86298686991970    3.65288480759596
H         3.32694171023762    3.91350498461843    4.92180876166203
H         9.97300842884718    5.02044396935546    1.76185712798969
H        10.55441087393126    3.43789786177523    2.28151360880664
H        10.69714211228986    4.83697804809712    3.35845792364905
H         3.81517744764698    1.17877422247654    1.37352368705965
H         5.93021743524635   -2.35770566805570    0.29040374451268
H         7.51908123315478    0.27456884669426    3.24399514058663
H         3.49604665280165   -1.44429571572857   -2.38902832119392
H         5.06091819079200   -1.88916810954726   -1.71264243563027
H         4.66324884578225   -0.19027782952977   -1.95726894032360
H         3.88926085348258   -3.21140449984195    0.12709413488202
H         2.31450606598028   -2.76191148520966   -0.52148949059285
H         2.71129151406568   -2.41169970468073    1.16413375438392
H         1.73252192631130   -0.45615136894118   -1.01129287103922
H         2.79972982814672    0.88863679582613   -0.62285187113763
H         2.00013242391999   -0.01889517941322    0.67272802768139
H         7.23362411107242   -3.89802659763420    1.28409187759564
H         8.99158077731528   -3.85361056076018    1.23656075681623
H         8.07126588973124   -3.00043479431074    0.00303059785065
H        10.24398052675582   -1.82750802379894    1.62421820151050
H         9.50346402948025   -0.38023666672840    2.28966634532027
H         9.26584560754593   -0.78710035968841    0.58500966762129
H         9.07258097559719   -3.09473520965637    3.56227675517362
H         7.30940984879515   -3.04380640132696    3.67924151104085
H         8.26581321403732   -1.61741995726985    4.07451160873596
H         3.68644142262817    5.45281178681245    6.62031537944286
H         3.38501602091206    6.26388343752794    5.05754465730439
H         4.31087238741546    7.09588921278161    6.33168291791419
H        10.40690892541106    7.85680344395630    4.87587109186367
H         9.04850934314352    8.16550940959715    3.81641126273297
H        10.24203332516315    6.96361438073225    3.38197905217829
Cl        7.10777749899979    1.28282870872608    5.95459852758943
O        11.88716145750986    5.66947990127386    4.99216603843071
C         9.35133328361491    4.82184623639148    6.34345371989344
C         8.52750961012096    4.02812383885403    7.21490822348961
C         9.24186912074352    2.88100417924586    7.62793074296646
C        10.54192444692479    2.93216888326599    7.05658232220705
C        11.66647409471679    2.09007747628703    7.22657462879826
C        12.84428601961619    2.48282483343227    6.63056160489076
C        12.94452275591127    3.66225548811038    5.88202329211183
C        11.85797841181977    4.48653100412099    5.68997609601838
C        10.61135438933060    4.12605788682116    6.25550685424472
C         7.16536566700095    4.35227105225073    7.75988931453362
C        11.56728976073612    0.85254285028266    8.01243723393058
C        12.57913331076770    0.50702479539759    8.90535071652293
C        12.49706240606520   -0.65327101648271    9.65540034105553
C        11.37179132752498   -1.46045167769322    9.49970449038176
C        10.35206795641969   -1.14938450185648    8.61301987181313
C        10.46854163820345    0.01685629860849    7.86563766455917
C        13.57752131504298   -1.07789334411040   10.63991698188833
C        12.97183655424385   -1.15793569682025   12.04812498365053
C        14.11942924934497   -2.45392184416976   10.22756397199917
C        14.75401951331984   -0.09893148035823   10.68232453612963
C         9.11868288989602   -2.02128237355979    8.43513907588466
C         9.13897637588439   -3.26872101710398    9.32326476875507
C         7.87270563518946   -1.19742975982284    8.79122371639088
C         9.03598488851190   -2.47154851698668    6.97184730404281
C        13.12455667681522    6.13124752077267    4.51072400513282
C         7.53744435815208    7.38592646374037    6.16995489939480
H         8.91888972481840    2.19350808370451    8.39700822127855
H        13.72226826725640    1.86303641011511    6.72778082346080
H        13.90360512554300    3.91357943693229    5.45887030755604
H         7.25741441946841    5.02042155108833    8.61872011216195
H         6.67602833439901    3.43790938031944    8.09890951293883
H         6.53351620468495    4.83703419064071    7.02201379580641
H        13.41526184067602    1.17882432278654    9.00719334635119
H        11.30025875671503   -2.35771297111415   10.09019843871393
H         9.71143759343318    0.27456467573328    7.13658063756223
H        13.73448198598411   -1.44436339455385   12.76965691696796
H        12.16957535145451   -1.88916233766254   12.09331348367803
H        12.56729922625074   -0.19029308219553   12.33799407657083
H        13.34119995611710   -3.21139388603710   10.25357848636353
H        14.91598349767916   -2.76191460488729   10.90208819146301
H        14.51912763878878   -2.41171650522392    9.21647612332445
H        15.49799434984716   -0.45618994520389   11.39189098162666
H        14.43076723686716    0.88860089536208   11.00352008276720
H        15.23030942012399   -0.01890516311864    9.70788655586076
H         9.99690503520574   -3.89800986607450    9.09645302081844
H         8.23895014286151   -3.85364790472983    9.14398291710821
H         9.15924854766813   -3.00047399895501   10.37753649657952
H         6.98653264802251   -1.82752124545511    8.75634931436213
H         7.72706581398648   -0.38023316369132    8.09094833511477
H         7.96466230415238   -0.78714380898171    9.79559842982987
H         8.15789987438080   -3.09472442329452    6.81830215705566
H         9.92106772693953   -3.04382125273977    6.70129870307060
H         8.96467232306669   -1.61742378931304    6.30603593814357
H        13.54399454039768    5.45286963398465    3.76015682070233
H        13.84539838979291    6.26394945355626    5.32292410504710
H        12.91945204530117    7.09589857093091    4.04881104870353
H         6.82357736348108    7.85682119019501    5.50468909233344
H         8.18199375278136    8.16556181655641    6.56416017629547
H         6.98847433987131    6.96364001809584    6.99859648146492

