59
CSD_code = SATQUB | q = 1 | S = 0 | Stoichiometry = C24H29N4NiO(1+) | MND = 5
C        13.04158990234883    9.58359143647324    6.56853481624430
H        13.17241234880046    8.91682189903763    5.70560072037697
H        11.98535373403475    9.86115880925201    6.63006252967555
C        13.43926555647703    8.83992761306108    7.85483783962991
C        12.87117993398430    7.42065013913307    7.86557233957031
H        13.23639397670596    6.84567124096562    7.01622529918065
H        11.78625991295196    7.44414257095330    7.81540630406227
H        13.15398044317816    6.90415455349010    8.78027772549124
C        12.95327438388863    9.61996261491677    9.07467686776593
H        13.31441699108982    9.16326227423611    9.99338202577826
H        11.86750673843094    9.63025119121298    9.10744920330420
H        13.30681390673180   10.64836997110425    9.02768991060248
C        13.48791346196314   11.75118872681557    5.66747633975521
C        12.22995790192875   11.63588997948175    4.85414630420839
H        12.12274790120081   10.62950669554490    4.45503323696198
H        12.24583157016038   12.32796338229941    4.01937335659546
H        11.35734903096901   11.85408458971808    5.47035596802952
C        14.23607426301311   12.97991727341026    5.59037182062907
C        13.62781236379969   14.17437608739152    5.16183943619813
H        12.58117003064749   14.17662868036257    4.90229182553041
C        14.31663869273121   15.35849538908958    5.11764173886278
H        13.82048785820649   16.26207734033273    4.80178473062022
C        15.66181707081448   15.39329124077813    5.49218463476355
H        16.20842116927308   16.32285482673509    5.44640825977616
C        16.28488019037639   14.25870510857875    5.93408140498552
H        17.32239410655030   14.26259789032350    6.23011339227443
C        15.60432649264886   13.01761746826075    5.99927462738897
C        18.46578921336501    9.29031040558534    6.67732368989301
C        18.41676394745073    9.82967096882025    8.05077940525067
C        17.21564609657571   11.08903184495272    9.58012675562805
C        15.96883224571241   11.85569961046867    9.87749717076689
H        15.32494630343873   11.86080068292311    8.98655676646409
H        16.21376450548625   12.88395115077122   10.13591344265652
H        15.43312437637585   11.41702829628066   10.71806299761188
C        18.25495644397045   11.02420819128589   10.50535015633707
H        18.16194130968804   11.53064213814382   11.45261227798612
C        19.39063341615481   10.30450894386992   10.18745314563086
H        20.20371794573385   10.22062934768021   10.89172822401438
C        19.47848648578713    9.70330306558493    8.94246307468142
H        20.35889952621395    9.14236138252560    8.67963117106112
C        19.65230039166299    8.86386798520431    6.08796122526043
H        20.58780792218906    8.90549939090613    6.61898132693809
C        19.62343763587433    8.40424161778398    4.78072094074039
H        20.52945112957569    8.06568768817365    4.30227679114304
C        18.42287565725187    8.40202752989040    4.09770248410614
H        18.36433750199599    8.06199336110291    3.07615005626729
C        17.27861919775189    8.86331674926986    4.74578643067269
C        15.95989336954862    8.90978477181708    4.04520474177987
H        15.49132014787806    7.92538294103434    4.04766330321582
H        16.08549526690982    9.21936768429232    3.01119473643987
H        15.31526419302034    9.62377068098855    4.55910774780311
N        17.29843133576990   10.48201886945004    8.39970691062238
N        17.30585567062936    9.27834857156667    6.00668889587850
N        14.91756567635822    8.80853480795677    7.86914080562603
H        15.23897859025701    8.08302962991865    7.22487203889292
H        15.24284792564322    8.53693920229128    8.79639021482076
N        13.87824872520990   10.76745079712668    6.42208860176182
O        16.28447839434449   11.98826280544592    6.36988827764960
Ni       15.65641951926289   10.47706989393940    7.11368353413977

