84
CSD_code = SATVUG | q = 0 | S = 0 | Stoichiometry = C36H39BIrN7 | MND = 6
Ir        4.37885444885985    8.00357152054931   14.38266969530995
N         5.51446504525976    7.45080725652031   16.09594984091315
N         4.83605046994338    7.10813019437752   17.20617980023959
N         3.19853092246658    9.26469408731231   15.77690930045641
N         2.97215782761829    8.75447072667682   16.99719127253563
N         2.99720565371815    6.36368646501685   15.02235098885017
N         2.62329713325812    6.38350992759627   16.30927622611349
N         3.51033922836772    8.03623578991734   11.54167907228316
H         4.47635356539319    7.76057908520642   11.36939415930520
C         6.80363903592205    7.19315902971510   16.30734752929657
C         6.95597753568587    6.66824823827502   17.59320365490625
H         7.86942295108749    6.36219817077495   18.06184039866507
C         5.68502256070127    6.62656608349036   18.13296091853644
C         7.89312837216264    7.43481026427092   15.32473953775800
H         8.10993423903770    6.52069862788244   14.77290113496188
H         8.79615004744535    7.74112599162714   15.84942011453389
H         7.60673625793528    8.20214795125633   14.61274033988077
C         5.27649544121459    6.14501508299998   19.47912131432185
H         4.80414304263630    6.94192919084243   20.05141214821517
H         6.15459538105682    5.79912411791034   20.01856011434948
H         4.56774382514849    5.32250792716190   19.39647835091053
C         2.78544288361588   10.52757160457950   15.77764378214660
C         2.27311483250580   10.83880600911175   17.04110059583565
H         1.86238085854518   11.77547056005879   17.36023675119415
C         2.41177957359607    9.68671004754447   17.79105352594899
C         2.87172905646188   11.44265906622028   14.60861649804014
H         3.74756402829154   12.08415960883257   14.70232951404379
H         1.98635339821028   12.07512404476499   14.56687752497300
H         2.96559032912525   10.88090546326909   13.68446570954589
C         2.03644645690041    9.46221003579064   19.21210357145261
H         1.30605051858151    8.65941113371105   19.30099372945066
H         1.60735119605420   10.37401979984988   19.61988369778449
H         2.90986439370719    9.19021805505745   19.80278790999046
C         2.24164712028130    5.47155664643589   14.38983275496667
C         1.34955941300946    4.90088299405707   15.30224872270283
H         0.61254629824286    4.14894695591387   15.10364376692803
C         1.62146406012925    5.50804354944712   16.51380121364275
C         2.35761150854695    5.14771673885707   12.94137797197761
H         1.62886937220466    5.71630274906150   12.36227475961826
H         2.15729762828868    4.08904598914907   12.78733557131165
H         3.35426786086206    5.37973029255834   12.57689760755867
C         0.96144532464298    5.28212007138409   17.82653922375759
H         1.67907351297005    4.93419280925538   18.56785641860705
H         0.18158068219176    4.53309988371659   17.71437454880582
H         0.51418056864171    6.20344486757881   18.19666700763821
C         3.17581627243586    8.27264634579920   12.83319725363685
C         1.79261838277745    8.58944666248432   13.01757188687177
H         1.44892504854334    8.77729888381547   14.02246520225141
C         0.90550378665126    8.66117921714136   11.98914539767353
H        -0.13214652800092    8.90788952610827   12.16566988382287
C         1.32192218610447    8.40482235838871   10.65334755056264
C         0.46975072645028    8.45032949673089    9.54181431057500
H        -0.56925281411618    8.70505738675166    9.68989943121123
C         0.95204288595838    8.17269264306743    8.28477773770572
H         0.29241497046120    8.20909995291885    7.43130476264601
C         2.29580160845699    7.83988733891023    8.10365046480822
H         2.66121950542105    7.62124496765261    7.11174484286969
C         3.15492650200678    7.78822378140754    9.17656404810322
H         4.19516381271891    7.52871523373736    9.04500283675979
C         2.67925802657698    8.07241472294134   10.46175439017553
C         5.50220257833970    9.68840857495716   13.99127069722328
C         6.13505492798877   10.31204010886638   15.07198056261852
H         6.08797997298359    9.87311160823898   16.05869806476430
C         6.83736491212163   11.49840504678586   14.94164010484080
H         7.31184289760265   11.93625654582129   15.80974962906386
C         6.93223715780963   12.12499924773608   13.71275618000349
H         7.48158641117322   13.04944047904925   13.60525210211488
C         6.29992158870525   11.54968005960693   12.62683275593368
H         6.34515249218719   12.02958865184924   11.65817536160934
C         5.59916634515331   10.36263198170752   12.76942343262351
H         5.10358263297756    9.97879203365225   11.88739365327899
C         5.59483030789742    6.76288503173080   13.27426975308696
C         5.67531934421102    5.41971257880537   13.65935316809103
H         5.11384062960158    5.06678264582762   14.51322527837797
C         6.46147753149026    4.49848697772995   12.98793405387255
H         6.48672552925490    3.47055244634318   13.32435511274046
C         7.21486058926367    4.88482259059521   11.89370447517287
H         7.82696533351532    4.16771335395794   11.36559989267322
C         7.18275427336638    6.20961168698989   11.50105858992484
H         7.78400426536723    6.54027161871288   10.66447503017472
C         6.39152281682091    7.12438850583160   12.18012406945145
H         6.44948021000192    8.15894992611035   11.86821968719984
B         3.31721792492337    7.29683093351128   17.33189306039259
H         2.96019109428355    7.03092414214252   18.42463699482586

