81
CSD_code = SATWAN | q = 0 | S = 0 | Stoichiometry = C33H39BIrN7 | MND = 6
Ir        3.40428232591391    2.78654332075656    3.35777583339502
N         4.22726437289428    0.99168430315605    3.89737753697751
N         4.03387803687088   -0.04558901972649    3.05779213702347
N         1.51647452133978    1.61636615014304    3.05608684794855
N         1.67069298890633    0.42157167572639    2.46382522933070
N         3.91379474490429    2.24907035442459    1.25933664964939
N         3.51347075500665    1.02854637044336    0.87097506297211
N         2.65507776060204    4.64556455796648    2.57433388388624
C         5.09307907181813    0.60352070007704    4.83609644090189
C         5.46510815631361   -0.71875135703149    4.58436393309205
H         6.14646123252774   -1.31403803650806    5.15747392555288
C         4.77686340834701   -1.09648648077488    3.44945768854856
C         5.57990884672382    1.42376497478214    5.97598908273097
H         6.52743714029424    1.89518019158107    5.72050066664614
H         5.73871383257234    0.78023023267854    6.83904554580150
H         4.86624865934039    2.20040036079727    6.22591387454728
C         4.81779730209996   -2.40786443197674    2.74990306616396
H         3.83967137567766   -2.88590994804906    2.75983079623864
H         5.53020098841908   -3.05839362385707    3.25041676580593
H         5.12294671840885   -2.28295675370122    1.71261371522661
C         0.25837255225315    1.71025766717990    3.46788400079393
C        -0.42174843011053    0.53529601262756    3.12998511149370
H        -1.44932777153364    0.30324411465268    3.32524870769484
C         0.51063823224188   -0.26266661270007    2.49563828077103
C        -0.30862401215906    2.89934304093483    4.15832545888253
H        -0.36386766784044    2.71740330586055    5.23100815511437
H        -1.31619722315842    3.09866789120423    3.79462732040697
H         0.31943550559638    3.77126728283534    4.00216481870683
C         0.32818507481342   -1.62699918100156    1.93392842743449
H         0.56676340499396   -1.64679764883201    0.87170939105195
H        -0.70487123136253   -1.93738532985769    2.06818288006846
H         0.97738893704409   -2.34082913661879    2.43867322204668
C         4.31422274663160    2.91248002408847    0.18103795956054
C         4.16376406478001    2.09131091960714   -0.94180685694218
H         4.40071262358541    2.33451358121891   -1.95800562537916
C         3.65145321456391    0.90040948060483   -0.46315253382823
C         4.83088784058390    4.30779090836540    0.20645881732127
H         4.05708554806896    5.00813637871780   -0.11230123380650
H         5.67140478124210    4.40141725395974   -0.47888654555349
H         5.15496983597565    4.57536300159686    1.20810451543449
C         3.28781760837122   -0.32272951698321   -1.22533697366819
H         3.87385457403810   -1.17704220563623   -0.89031820262056
H         3.47773442166372   -0.15973111244271   -2.28316213045659
H         2.23420627529754   -0.56247217862731   -1.08912655025531
C         1.69408371236640    4.80176425778475    1.64638383166863
C         1.26061350883098    6.06496587943358    1.24172695594731
H         0.46713068939934    6.12727807895915    0.51216136059454
C         1.83036764263603    7.21234406180623    1.75147997839472
H         1.49118212708986    8.19047221636273    1.44701759234155
C         2.87414023702920    7.04900091171795    2.64862620109370
H         3.40003164248689    7.89528147724872    3.06032008903645
C         3.23870016222504    5.77202838227400    3.02016387275162
H         4.06954669189300    5.64338169724890    3.69516334243509
C         1.03677324528091    3.64295804419768    0.96778607521196
H         1.62089695369761    2.74011536968645    1.06029356125693
H         0.90080776878003    3.86965544847891   -0.08876628119756
H         0.05509330953354    3.46023107253036    1.40233258771547
C         5.27682049044189    3.55807563908874    3.75931540127845
C         6.35006493110171    3.11591282567458    2.98036819348669
H         6.18771746244429    2.40063241431873    2.18666631632525
C         7.64813963906297    3.55627944982253    3.18193231511265
H         8.44235540184421    3.18781203193357    2.54616306514886
C         7.93264939001666    4.45800798294024    4.19065202309531
H         8.94320106502279    4.80715803627648    4.34922060623118
C         6.90122831379300    4.88924332666837    5.00434319297895
H         7.10360175802148    5.57390033811590    5.81712868029563
C         5.60681570588924    4.44078298992385    4.79435660302998
H         4.84742240667107    4.77332678584836    5.48878514890951
C         2.67485377163837    3.12251436331185    5.25732715682800
C         2.31387497114358    2.02289091880385    6.04529885545808
H         2.50236228452212    1.01708398752686    5.69737361976649
C         1.70683995568035    2.15735599761443    7.28246042468189
H         1.45214154522647    1.27295636928442    7.85146525740261
C         1.42222982667632    3.41148996469813    7.79124527962032
H         0.95017811753235    3.52236073011927    8.75721610948599
C         1.74738242086325    4.51997757604172    7.03320884298486
H         1.52461004744849    5.51250299076920    7.40246076286623
C         2.35613660362495    4.37190146093128    5.79645835146913
H         2.56738667290401    5.27976498341835    5.24758225329298
B         3.02926239871731   -0.00866422906845    1.89434682318104
H         2.94352398390242   -1.06964531345613    1.38674645311213

