76
CSD_code = SATXES | q = 0 | S = 0 | Stoichiometry = C31H34BIrN8O | MND = 6
Ir        1.06011710333767    2.71410368695516    6.44656534816201
O         2.11330650192103   -2.31184357166581    6.90306476867571
N        -0.23086126386369    2.69463203948649    4.63139678308415
N        -0.57056175738680    3.89707315330739    4.14355228069432
N        -0.17054961373781    4.38693973468015    7.12533669605827
N        -0.50014277145768    5.30519407700015    6.20174366805576
N         2.18285435182833    4.17226897654050    5.51837764228091
N         1.52685024030334    5.09335912395992    4.78340709365897
N        -0.00892180074726    1.24465064125476    7.23828471634583
N         1.70262944801541   -0.08572163441533    6.44197884507759
C        -0.84278671717129    1.76994415639141    3.89762757138256
C        -1.60566124521383    2.40087577344786    2.91146911228273
H        -2.21355546208929    1.93040816981472    2.16544060679930
C        -1.40697421037944    3.75543544934643    3.09903868639684
C        -0.71247736350514    0.30169121649039    4.10146979495849
H         0.33419467283003    0.01248517374924    4.16124948055750
H        -1.17147143231309   -0.21910144516030    3.26444007225421
H        -1.21250811828461   -0.01537761793756    5.01652591536689
C        -1.98317907338710    4.88730192051047    2.32720399173762
H        -2.56690529850498    5.53975084194691    2.97434781633009
H        -2.63029870960341    4.49817815245121    1.54551274520941
H        -1.19648210165319    5.48327461976424    1.86787434900413
C        -0.68845425835512    4.77258131825052    8.28875919589571
C        -1.38330508392004    5.97169135317159    8.10172959553188
H        -1.91158819989464    6.53361831674290    8.84498820668661
C        -1.23889392731529    6.28039706808513    6.76298722646827
C        -0.52747043002770    4.04702708458148    9.57853478972030
H        -1.50263581383663    3.81602506961117   10.00725389529875
H         0.00835789873144    4.67894556973139   10.28573150097724
H         0.03869679255419    3.13077969468323    9.44706337890236
C        -1.77536155256556    7.45406413818520    6.02571001298984
H        -0.96606896804371    8.04939552116727    5.60631595560735
H        -2.35108236495269    8.07543816109561    6.70673495308890
H        -2.42014579979522    7.13691479161114    5.20790671504788
C         3.49029478323531    4.41915343977981    5.41462973022390
C         3.67433445358102    5.52193032534199    4.57736272021679
H         4.60698872444199    5.96469934319084    4.29279413777939
C         2.40875250915496    5.92264902961064    4.19685144662187
C         4.57217049264093    3.67191739482804    6.11022881170630
H         4.19654213462500    2.75086687358970    6.54103696987286
H         4.98050475981646    4.28520295091244    6.91269396955302
H         5.37706486317490    3.44957652619229    5.41208938874467
C         2.03704180948780    7.04930752728569    3.30139890226111
H         1.44824661320238    6.69383310139935    2.45800481096090
H         2.94028986513056    7.52269605004811    2.92582779077643
H         1.44834660536357    7.79266692181294    3.83613344476814
C         2.21101716795317    2.88598643248605    8.14730938007957
C         2.61997833599465    1.82367205881982    8.95409196611131
H         2.38960287938667    0.80139874314837    8.68852991175409
C         3.33813059525496    2.02067803693945   10.12387699449870
H         3.63282555536555    1.16573662568520   10.71634714315086
C         3.67687755547552    3.29649670752984   10.53109195627515
H         4.23618957589182    3.45290131498273   11.44225884716989
C         3.28883664845479    4.36996554164324    9.74975659068155
H         3.54475708759520    5.37758256794004   10.04919975518006
C         2.57225917381633    4.16404411265920    8.58389520380240
H         2.29034764137004    5.03619629276471    8.01035372825962
C         0.52363017062982    0.00021220570593    7.17639368662427
C        -0.13902957383697   -1.08922911423961    7.74352054701592
H         0.32279528398135   -2.06124777741379    7.70899621649950
C        -1.37634670307389   -0.90672471864809    8.32767353386068
H        -1.89365611605177   -1.74512208086174    8.76700100028421
C        -1.94450945227952    0.35971711218970    8.32237146172211
H        -2.92072608640731    0.54188238724909    8.74164813652051
C        -1.22256727802868    1.39633336968370    7.77126793091796
H        -1.63031440821748    2.39515975990973    7.74788524720764
C         2.08893323817174    1.10742298245627    5.83264516379747
C         3.04862282526703    1.04577885781556    4.85957430260930
H         3.33059416986240    1.94354347913126    4.33639484819093
C         3.67667100212032   -0.16694293407284    4.52815144943312
H         4.41748723339416   -0.18575764121813    3.74115009560310
C         3.37376584435900   -1.29899250862737    5.21338585585332
H         3.86291850315800   -2.24037742218988    5.02037563265701
C         2.38267863287588   -1.31785316130787    6.24156868480969
B        -0.00968259817478    5.18641861207138    4.75126256869172
H        -0.35192818968071    6.12261994894061    4.12384662666668

