97
CSD_code = SAVCOJ | q = 1 | S = 0 | Stoichiometry = C45H42N9Ru(1+) | MND = 6
Ru        9.03990411953342    8.60890879002084    4.74884517175123
N         8.36958576953213    9.32225437421400    2.98720933233461
N         8.17947273223972   10.52359135092586    2.56201421480027
N         7.97755013750075   10.46296441896414    1.25836992569000
N         9.69035767429540    7.20511936433738    6.04103337290524
N         9.93152619398478    7.24348211094072    7.30620407144828
N        10.09758443741294    6.00152048454061    7.72298990003466
N        10.86375548700428    9.28504112853085    4.24156877037053
N         9.08649001881549   10.19132097794597    5.81160438671740
N         7.23353717509779    8.46640324193319    5.61945500695404
C         8.98547692610139    6.96958820755016    3.63576775633303
C         9.34388957869285    5.73508334894112    4.19068562180036
C         9.31123373212510    4.57202440604519    3.41658590176270
C         8.90548513734253    4.69090123366695    2.09041030671396
H         8.87385142492096    3.79686388151728    1.48418080754227
C         8.53849208254325    5.89777178669064    1.50184196785137
C         8.58704736283881    7.04681960556319    2.29570692267825
C         9.69229237723796    3.24118621786672    3.98539547602882
H         9.70279566434757    2.47830420421386    3.21181051469633
H         8.98075150742524    2.94123939588334    4.75470798172275
H        10.68052333712321    3.29094909172706    4.44072322490064
C         8.11269150561100    5.95321984269569    0.06814450724973
H         7.14184894156430    6.43883286884705   -0.02186064430481
H         8.04345250177109    4.95441750018978   -0.35391763022522
H         8.83197936149738    6.52525090641731   -0.51788978831231
C         8.29920226379394    8.42585628713467    1.94927407652209
C         8.03634376426705    9.18188368937575    0.82481673717638
H         7.91975637910607    8.92460370315953   -0.20516988500509
C         7.80438419924252   11.62791505656870    0.47616305678801
C         6.66145518321529   11.77749214214635   -0.30917790979880
C         6.54113054234863   12.92837750543993   -1.07507175970231
H         5.66059903195338   13.05662269860857   -1.68681414893693
C         7.51580370429254   13.91516833030192   -1.06802606586816
C         8.63678711241157   13.73919658987042   -0.26539613379972
H         9.40038193961905   14.50259103277961   -0.25044592397851
C         8.80118117401914   12.60779997356240    0.51500753632081
C         5.57603312898152   10.74393159387451   -0.33576412958817
H         5.48971487905044   10.22584588400239    0.61717130312731
H         5.77134851140236   10.00391682541433   -1.11228045460547
H         4.62209207314037   11.21284298821139   -0.56230742658343
C         7.37606925909414   15.13644723995319   -1.91906047701103
H         7.81792956026887   16.00176656684495   -1.43141154954572
H         6.33160418321884   15.34441208690047   -2.13502997924626
H         7.89332777081824   14.98622519994503   -2.86690040472873
C        10.02012297327198   12.43487808727191    1.37060533126107
H        10.49232459009231   11.46880976632315    1.18942840832370
H         9.75112529295825   12.48163894423364    2.42527192771357
H        10.74324490457734   13.21753318122763    1.15968856471762
C         9.68851372537477    5.90829318825284    5.58908903296110
C         9.96157856272821    5.13033133725022    6.69601739665298
H        10.03905601015294    4.07395986083137    6.83305412185727
C        10.31515297595734    5.69456335837396    9.08592277552879
C        11.45152399094111    4.98083297667330    9.46697940081504
C        11.61627947919961    4.68588413828220   10.81249279658043
H        12.49193139911526    4.13476852948155   11.12159945689102
C        10.69149798713285    5.08584639263144   11.76639734549895
C         9.57640694212116    5.80471357624926   11.35361466581503
H         8.85142424470211    6.12338837991490   12.08769356597076
C         9.36899418165178    6.12207865945372   10.02193293155764
C        12.48292908936328    4.54146168881361    8.47184863193936
H        12.23955505629606    3.55354534972551    8.07998183925205
H        13.45618192578093    4.47365220995636    8.95079013184063
H        12.55603882621604    5.23327015213691    7.63520480227615
C        10.88228078575912    4.73341854525004   13.20680015221218
H        11.93851274173918    4.68731956017432   13.45918735156897
H        10.44699847807278    3.75415717690483   13.40714644239493
H        10.39300622404622    5.45712440729025   13.85329750938899
C         8.15736845008561    6.89481541441907    9.59481765406401
H         8.44599254376761    7.88270822674180    9.23750050470341
H         7.47090334881371    7.01182213106076   10.42846472259874
H         7.63451633050047    6.38662768128039    8.78396560988936
C        11.73635868126253    8.75527028032833    3.38127411310163
H        11.45655902893992    7.79839390598663    2.95438128692099
C        12.92510530433347    9.36596524700436    3.03595318242706
H        13.59083656446367    8.89233413209714    2.33311020576662
C        13.24135483995746   10.59421202376694    3.60850419138450
H        14.16051827014439   11.09947514186167    3.35831853497840
C        12.35215871509298   11.15125303350568    4.50496467744676
H        12.56558233540176   12.10146024529555    4.96657308392823
C        11.16604481898685   10.48467005263381    4.81362896936218
C        10.16051950401341   10.99711351257047    5.73659386060609
C        10.21381464239279   12.16544042050941    6.49118993877140
H        11.06718904319950   12.82152524244486    6.44191309752562
C         9.14298625093149   12.47499212719202    7.31876036905427
H         9.16527110819346   13.37473786481145    7.91262351717144
C         8.04304956275812   11.63036677090145    7.38335052674250
H         7.21092913680101   11.87300306850378    8.02352833497430
C         8.03880426776342   10.47655457720947    6.60499522463102
C         6.99316170202415    9.46442454013012    6.51602706397406
C         5.82952070332481    9.47649914224049    7.28556352547082
H         5.66540268943873   10.27397008488897    7.99171533050152
C         4.89994808379100    8.46636858586337    7.14331999521014
H         3.99766331286846    8.46100687588079    7.73373676678369
C         5.15347395634958    7.45594823397714    6.22075345305780
H         4.45470187589396    6.64859339809835    6.07439108623984
C         6.32241300222728    7.49956338382867    5.48796070693336
H         6.55295169223383    6.72956105399848    4.75991234178140

