91
CSD_code = SAVDAW | q = 1 | S = 0 | Stoichiometry = C43H36F2N9Ru(1+) | MND = 6
Ru        6.46086926993882    3.32742576934394   14.91259626749623
F         1.75282563629580    3.40988179374435   17.35748882605230
F         4.57003957837486   -0.23103211799621   18.36234339258909
N         7.37806619831064    1.66811533081500   15.62557435070227
N         8.48190670637341    1.07347658868906   15.32877079573331
N         8.50195792269493   -0.08696708236034   15.96019914586067
N         4.97100735786016    4.68852956708562   14.71255917213891
N         4.87785833933562    5.81510021240775   14.09371679138072
N         3.73972579945341    6.38269706386870   14.45080913460397
N         5.97872741928820    2.28489084601860   13.25778840993932
N         7.79471967282245    3.99873665874411   13.72688287327524
N         7.39083105986651    4.60696928003987   16.15966872357553
C         5.09132912688057    2.60903657435082   16.14356657761045
C         3.87824539430365    3.29079484697740   16.31117923931009
C         2.92525652367232    2.76907512820447   17.17654595644981
C         3.15722178663574    1.58799256343005   17.86654544733878
H         2.40923974746730    1.19318548293152   18.53370808882722
C         4.35951448944146    0.91839724581806   17.68959959364852
C         5.33563100354617    1.41453307195142   16.83527898450583
C         6.63602548511723    0.88869864121582   16.47674394551025
C         7.37802969779425   -0.25259126890250   16.69327236727655
H         7.17593643245105   -1.12971508259113   17.26891338722941
C         9.56228599939966   -1.00789302974004   15.79510082716691
C        10.24792677581870   -1.48747980765099   16.91308674003171
C        11.26546813272411   -2.40637270311586   16.70778500566839
H        11.80513962617960   -2.78694835810129   17.56210973164178
C        11.61034473270813   -2.84553637400344   15.43634859232897
C        10.91644170191072   -2.33819002826704   14.34613614775418
H        11.17655194283370   -2.66897395638243   13.35175728885187
C         9.89220687263870   -1.41803333695939   14.50051022143941
C         9.92109276912939   -1.03289780863692   18.30331702444905
H        10.80277424465698   -1.10733321033876   18.93442876906389
H         9.14921903512013   -1.66546863352336   18.74197834291168
H         9.56935280506474   -0.00331761119874   18.32023468233380
C        12.70538784929925   -3.84756514308929   15.25927610989947
H        12.93202933737686   -4.00002560540215   14.20793447748487
H        12.41089836478089   -4.80288306176851   15.69202832591806
H        13.60838525351014   -3.51907513020193   15.77022932628797
C         9.15239145746705   -0.88984575211811   13.30834998600522
H         8.07445087191535   -0.98355910007346   13.44234543743134
H         9.43781009003067   -1.43834121273801   12.41526323276484
H         9.38012670038187    0.16491858515065   13.15884770948414
C         3.86912205034593    4.49476614615214   15.50737419743770
C         3.06883214746070    5.60242880879109   15.32715555772455
H         2.13115925072501    5.87833254783654   15.75895912601538
C         3.36280752807083    7.66383753781399   13.98393409992502
C         2.15321580201018    7.82813207752624   13.30869824811608
C         1.80780580300193    9.10585168156360   12.89241116397405
H         0.87375710855058    9.24805480056997   12.36973075158480
C         2.62990215967757   10.19816977872416   13.12794947790192
C         3.83454246683829    9.99570740570971   13.79122099155025
H         4.48312363830456   10.83874111013958   13.97725310933921
C         4.22227908308651    8.73971405267986   14.22517576439683
C         1.23977239944833    6.67448874230728   13.02483090634739
H         1.79344827651747    5.75109037114131   12.86686271756400
H         0.64810020648928    6.87918661498684   12.13650907434699
H         0.54772389756897    6.52074175201020   13.85294503845515
C         2.24331907113863   11.56208580333690   12.65376591728648
H         2.61838348655701   12.32851707607820   13.32722064806498
H         1.16364223280840   11.65572219659303   12.57388040713484
H         2.67143390181324   11.74391150046361   11.66775874700391
C         5.52009778979821    8.54099686205406   14.94872161225534
H         5.98926564123268    9.49935070624046   15.15156617877696
H         6.20001573845509    7.93822685793183   14.34772559394861
H         5.36365317570851    8.02478050483123   15.89639622206024
C         5.00678895649507    1.38505714590705   13.09649518968609
H         4.35064095105589    1.23787205923381   13.94707532670464
C         4.82490209041533    0.66751528169356   11.93053996146947
H         4.02256766552792   -0.04819389295455   11.85750031811530
C         5.69188667788483    0.88600287057748   10.86532785231745
H         5.58040399588786    0.34057715069409    9.94188931772779
C         6.69881235646029    1.81871777664191   11.01573598084990
H         7.38742368767363    2.01250570081149   10.20978482935367
C         6.82874806940059    2.51279258667931   12.21854448939930
C         7.86257210194790    3.51028558496997   12.47609797405659
C         8.84323959458318    3.96293747100110   11.59809705867619
H         8.90909039538012    3.58102281161131   10.59279705077787
C         9.74234995985756    4.92396039200036   12.03949697476015
H        10.50870736411786    5.28898692543208   11.37467740225515
C         9.65873488959596    5.41452639691293   13.33533806607153
H        10.35989594366486    6.15655324393410   13.67967679529569
C         8.66026297917167    4.92573946865527   14.17293234587138
C         8.40127083546905    5.29597226945221   15.56073796456270
C         9.10616703200697    6.28411558370896   16.24774645607211
H         9.89880867273126    6.81858772593899   15.75032755570498
C         8.78111610444596    6.57567671170951   17.55764197499828
H         9.31529337826461    7.33905628039601   18.10038191971798
C         7.75019719157837    5.86283565069253   18.16021848354822
H         7.46326077403546    6.05488828001600   19.18106651335252
C         7.09105334170774    4.89534928203339   17.42745441316384
H         6.28425292415095    4.31941447113519   17.86685278431100

