53
CSD_code = SAVFED | q = 0 | S = 0 | Stoichiometry = C26H22As2Cl2Pt | MND = 4
Pt       -1.55011577292337    7.42910132911999    2.81763848813026
As       -1.15398373430259    5.92171019122952    4.61496271238388
Cl        0.18060642893380    8.47105282382203    3.86493822320178
C        -2.16182941952116    1.93847320316706    4.80811767169667
C        -0.10363023380572    3.36444843807658    4.35082190738219
C        -2.24408518871029    4.34210097350153    4.88622526811000
C         2.13255532133426    2.69856613770660    3.78280684498584
C        -4.22478943930453    3.06988254445698    5.32184632849237
C         2.52517333661165    4.02554951965210    3.70591695595911
C        -3.59229504346964    4.29563701474432    5.19009847589863
C         0.82802911535449    2.36400955813234    4.10210621331886
C        -3.50754529900764    1.89988652303150    5.12853017994159
C         1.60792281253104    5.03550093870845    3.95246620726703
C        -0.83843607209449    6.51330619155553    6.45416254831337
C        -1.51453657355389    3.16173445409526    4.68381069095603
C         0.30508823988107    4.70638947620001    4.27943044873877
H        -1.62016817770942    1.01636976194916    4.65595484162411
H         2.85093910232621    1.91527899500661    3.58852282790722
H        -5.27558131974589    3.02518735332829    5.56674736599879
H         3.54532720833989    4.27227337293864    3.45102965996391
H        -4.14360738358532    5.22097197837012    5.32539082208609
H         0.53894477284101    1.32463151904428    4.15455673812719
H        -4.00567211012540    0.94635285921564    5.22710083379522
H         1.89203936234815    6.07946079381137    3.88706978415416
H        -0.04357555949913    7.26057234797821    6.45443670289559
H        -1.75215045988490    6.96156420141505    6.85033000840767
H        -0.55230631274496    5.65614091735617    7.06811813810337
As       -3.02871054304363    6.12021676289230    1.47514945056872
Cl       -1.63474752792101    8.87998207868985    1.06711956956308
C        -1.70505919450192    2.22133381361896    1.39797002754788
C        -3.87243273314695    3.48090474211993    1.84868868573422
C        -1.84674706642127    4.61619413227547    1.20597160643144
C        -6.03594153927765    2.65203351862430    2.47923468742273
C         0.24555264931111    3.51606032576724    0.82645641480372
C        -6.52168854475228    3.94636857110620    2.57101796629876
C        -0.49775727052204    4.68351237811979    0.89964772380626
C        -4.72014631745897    2.41512894829271    2.12193909698319
C        -0.36205528339683    2.29415694382364    1.07137372753801
C        -5.68650029792096    5.01942969263884    2.29966426297300
C        -3.57462603905905    6.59312786819023   -0.34551840063515
C        -2.46130691802060    3.38452253467364    1.47705397046328
C        -4.37342640750714    4.78910448452452    1.93402399304911
H        -2.15753910611695    1.26193918017855    1.60194337291919
H        -6.68989168662765    1.81855117113461    2.69024655244166
H         1.29792311114331    3.55693985394479    0.58817482862347
H        -7.54986744067165    4.11865870646874    2.85389280077516
H        -0.03830608303784    5.65185147257257    0.71881831472478
H        -4.35635089218888    1.40050925856932    2.05639552826886
H         0.22243817838414    1.38754646350564    1.01425943939352
H        -6.05265766790301    6.03826860580011    2.37128117067795
H        -4.36803090829443    7.34260225454274   -0.30720388335460
H        -2.71757408347561    7.02265474121302   -0.86491626387255
H        -3.93096798806387    5.70044807913744   -0.86422153100782

