79
CSD_code = SAVGOO | q = 0 | S = 0 | Stoichiometry = C36H38As2I2Pt | MND = 4
Pt       12.35156227917408    3.65041798182649    1.70436454778566
I        11.98558407131131    6.16676746121273    1.17831031623976
I        12.68154134190420    1.10642985934622    2.18837027306402
As       14.72072868445702    3.96587957773079    1.99613533779900
As       10.03402332801497    3.20197767096049    1.28459164946678
C        15.68515421417036    3.59887673574529    3.62730613858052
C        16.54394781924771    4.66315505292123    3.95232779325594
C        16.55684538130595    5.77180461418194    2.99592100179562
C        15.69204009421671    5.62577262981149    1.89925490606401
C        15.59648092442205    2.84285438071715    0.61885206497301
C        17.08571613319204    3.12315352148967    0.49100215795930
C        17.68188315080336    2.25576424115153   -0.61567194267907
C        16.96686691684606    2.51650549211669   -1.93953060813819
C        15.47106421946045    2.23797806958175   -1.80917330977260
C        14.87648510348990    3.10146938604283   -0.70301599899472
C        15.64734857915211    6.58916694674818    0.90754670317316
C        16.45599969370359    7.71076742030229    1.00183806215440
C        17.30210514836343    7.86624019327947    2.08724719639702
C        17.35778973946773    6.90384571204291    3.08019154437247
C        17.31203408557494    4.58183101940059    5.10699121007885
C        17.22693044451206    3.46339123449803    5.91814771427438
C        16.38119236068419    2.41681830733065    5.58952728692642
C        15.60262999495363    2.48514314292822    4.44401875094189
C         9.60582748996593    2.35953261901832   -0.39515045279741
C         8.61118766034958    3.07743052971580   -1.08163550074089
C         8.11460685312734    4.26990408758714   -0.39157207256425
C         8.71553530119254    4.53283800344743    0.84924155209154
C         8.33520135492569    5.63081394529686    1.59909075923931
C         7.34416226192453    6.47513457246973    1.12418341625862
C         6.74432428500521    6.21955620680300   -0.09814795882103
C         7.12362941927162    5.12561361826735   -0.85635018455698
C         8.18239576499520    2.61653451412469   -2.31993629157296
C         8.73527734123027    1.46816975334482   -2.86063852381950
C         9.71624177439092    0.76689372428366   -2.17858545521670
C        10.15751774795025    1.21477821415296   -0.94264246738908
C         9.13150105196147    2.08507206355321    2.64961663403537
C         9.37597826752354    2.72705542411488    4.01194956627515
C         8.71844539170290    1.90313846361496    5.11353064217289
C         7.22452202163896    1.75319292257978    4.83722671920141
C         6.99185596640372    1.10844992655129    3.47301361011411
C         7.64310928115652    1.94407369165251    2.37317041099930
H        15.45227469710680    1.79424629907238    0.91477537949627
H        17.58748098676859    2.91877487974696    1.44463808647570
H        17.24433511074338    4.17989406448390    0.24543008151280
H        18.74761296928977    2.47026032499971   -0.71892081745564
H        17.57512623312654    1.20231434375358   -0.34634700110624
H        17.39410044109008    1.88583585992138   -2.72139058533835
H        17.11672481168334    3.55913348978641   -2.23101548315635
H        15.31687002625636    1.18385102505899   -1.56631927749915
H        14.96813342124749    2.44358778966132   -2.75650325937936
H        14.98152690118286    4.16097005016776   -0.96975388438240
H        13.79637736617692    2.88864778447714   -0.59047966969240
H        14.97679069857799    6.47602784087749    0.06460863798392
H        16.41967711544745    8.46519523501431    0.23023252060467
H        17.92511184162893    8.74553637049929    2.16074113337807
H        18.02758826509481    7.03748470482794    3.91690840113955
H        17.97716642798474    5.38894533299898    5.37681817144837
H        17.82625052435521    3.40854989152634    6.81522789756844
H        16.32261959851411    1.54658095107679    6.22628341261141
H        14.93861590326070    1.66760069112163    4.19111033138228
H         8.82271253466426    5.83858238791810    2.54509801298910
H         7.04639122020964    7.33629367367242    1.70362697796715
H         5.97659657895873    6.88371982223322   -0.46721734742229
H         6.64797279688693    4.94353668702751   -1.80892976144877
H         7.41908972873495    3.15131223414760   -2.86580206145299
H         8.39808127692081    1.11768924486684   -3.82522935623847
H        10.14128698033703   -0.12762030538650   -2.60930686114071
H        10.92636090810044    0.66855648140732   -0.40804071227764
H         9.59897776484467    1.09185592304710    2.62372532501350
H        10.45848301649819    2.80932159731599    4.19565383385900
H         8.95546194391894    3.74128354012838    4.01264227605966
H         9.18343700619173    0.91520834344539    5.14926480246534
H         8.87303254191021    2.38384472580046    6.08174821105262
H         6.75138027331561    2.73833352997334    4.85612129556760
H         6.76273266821686    1.14540231079090    5.61754673953167
H         5.92081434557276    1.01560505909830    3.28112677483638
H         7.42356427048160    0.10484688659376    3.46747505769728
H         7.48540785102413    1.47244494487038    1.39545190497039
H         7.17456001027474    2.93545305188946    2.34948361370198

