53
CSD_code = SAVHEF | q = 0 | S = 0 | Stoichiometry = C26H22As2I2Pt | MND = 4
Pt        3.50205540256639    9.34723259349735   10.02164121674876
I         3.16212270319854   11.77018372929945   10.90449973818546
As        2.05622007510356    9.85977587523373    8.19699595995417
C         1.18852084631913    8.53315213007504    7.05609475236258
C         3.10906368168240   10.88367765567080    6.95340242288122
C         2.51061262849777   12.11996202901892    6.65949618184387
C         1.22253136778708   12.35167279546143    7.31728927363439
C         0.79231669216565   11.31631738777723    8.16271664352657
C        -0.40239259116908   11.41067752576541    8.85086894392076
C        -1.19314101761311   12.53865703167270    8.69430554541354
C        -0.77802722608021   13.56346992101485    7.85978764293001
C         0.42107176553257   13.47703091188458    7.17368517728733
C         3.16642530905533   12.99322765894487    5.80098891714946
C         4.38997498531583   12.63870483296226    5.25783709025453
C         4.97687991221795   11.42011393004476    5.55971983414110
C         4.33701853002331   10.53821856747678    6.41719461575637
H         0.47305642591799    7.94927246751462    7.63977571081741
H         0.66479775462121    9.05425536886792    6.25208516094729
H         1.93067066983244    7.85436150686564    6.63422971200262
H        -0.71033681813613   10.60700854557015    9.51194124855379
H        -2.12856357504988   12.62085297101659    9.22767779557179
H        -1.39447357748523   14.44292468443718    7.74572381944883
H         0.73136961883987   14.28816389032210    6.53176450564156
H         2.73038000725872   13.95141719412827    5.56001143627916
H         4.89547232250826   13.32448497500637    4.59371665770371
H         5.93411657976211   11.15993874140841    5.13231804901209
H         4.78785229653813    9.58252515775338    6.66871453278207
I         3.84301825389934    6.92522738093873    9.13803697905335
As        4.94729382118923    8.83474011195896   11.84713151128004
C         5.81434086820597   10.16071194815346   12.98941527016147
C         3.89265034242625    7.81066657274493   13.08914816970369
C         4.49025461213293    6.57400858544918   13.38320650959340
C         5.77891194181014    6.34211656323558   12.72659687006533
C         6.21044134055818    7.37762642506995   11.88200745866898
C         7.40598989828583    7.28323496162860   11.19528515700237
C         8.19613548243295    6.15490499734796   11.35227661086436
C         7.77972648191270    5.12995590795719   12.18598870068734
C         6.57992147505314    5.21655268216626   12.87082374471140
C         3.83331847273104    5.70077561944113   14.24095795256021
C         2.60933798346017    6.05558038523408   14.78299169355877
C         2.02323242350633    7.27449339863848   14.48088540287666
C         2.66436056865630    8.15644800695398   13.62438383647449
H         6.53028190614687   10.74483877584700   12.40657128599828
H         6.33754428822784    9.63920948376982   13.79352650642102
H         5.07213121154923   10.83946867263299   13.41123658111896
H         7.71481973604502    8.08691777745984   10.53462633548594
H         9.13183951074289    6.07232121483178   10.81945108463028
H         8.39541524029023    4.24996895549383   12.29990606019320
H         6.26847962607076    4.40518110277583   13.51187444397326
H         4.26858799409716    4.74221171190789   14.48187294774879
H         2.10258479683651    5.36953731569068   15.44590245885640
H         1.06540460295991    7.53468378683072   14.90698150763700
H         2.21408235156051    9.11233757714577   13.37263233592445

