82
CSD_code = SAVMAD | q = 0 | S = 0 | Stoichiometry = C43H20F15IrOP2 | MND = 4
Ir       -0.84450010719506   -5.40028174617253   -4.28168544177191
P        -3.13368020544844   -5.31825847794120   -4.58297603819198
P         1.45510243285769   -5.56031157090371   -4.14327012973166
C        -0.79172578467824   -6.75071329991626   -5.55801406643295
O        -0.76081816220512   -7.59038515980590   -6.35234129699644
C        -0.91093685292622   -3.91622020753509   -2.85548363880586
C        -0.24580321432665   -2.69737182758647   -2.95883898788633
C        -0.26729210665144   -1.70359217342587   -1.99103203769407
C        -1.02802883762060   -1.88811962617209   -0.84252667612090
C        -1.73145900775346   -3.07749126934283   -0.69123660513322
C        -1.63859683496423   -4.04995978477739   -1.67562026301566
F         0.49538438578052   -2.47168809726735   -4.07523157716421
F         0.45338456297587   -0.58138837308246   -2.14964832832547
F        -1.08348633567793   -0.93931204695501    0.09816542045526
F        -2.50776318544269   -3.27001212465165    0.38791009819844
F        -2.32947476545566   -5.20561214039168   -1.48843182585662
C         2.41250995149292   -4.32777767926517   -3.16075571455251
C         3.29428098672762   -3.35725400698813   -3.62237967100982
C         3.82807576295987   -2.39731813476542   -2.76526409126643
C         3.47561679411372   -2.38409456444590   -1.41879783648591
C         2.59418651946110   -3.34761710787795   -0.93254630830738
C         2.08320600537088   -4.29301197265845   -1.80856380616213
F         3.67655368953789   -3.33410495316176   -4.89934231984951
F         4.68961821642854   -1.49409070305549   -3.23311691337833
F         3.98790270484882   -1.47025612147305   -0.60048883214655
F         2.24353232135644   -3.35262523026957    0.35457694250076
F         1.23742892242229   -5.22824069224023   -1.35500293776086
C         2.16515184403719   -7.07711407701096   -3.43078062592867
C         1.33278217952715   -8.17540542698800   -3.25304870237322
H         0.28680622190455   -8.09031839076251   -3.51813348279582
C         1.83831871591332   -9.35375008247869   -2.73422278840219
H         1.18850694325373  -10.20473072681684   -2.59708986684047
C         3.17611309205043   -9.43862397086622   -2.38530747660767
H         3.57169615514793  -10.35664919982828   -1.97778073682958
C         4.00805809052175   -8.34253335452381   -2.55078073250958
H         5.04959967080627   -8.40665428753654   -2.27278292844092
C         3.50770824170111   -7.16261866832980   -3.07026264697191
H         4.15825631669337   -6.30653440159664   -3.19372053136570
C         2.18807859208767   -5.44873769385349   -5.80490734095835
C         3.23520139910779   -6.24044090088372   -6.25669587027329
H         3.69594307478055   -6.96514163521246   -5.60141192659669
C         3.68501667023490   -6.10354489416116   -7.55882611343498
H         4.50133213494293   -6.71791506365103   -7.90860186140136
C         3.09364693024524   -5.18652920640306   -8.41067486911838
H         3.45187169156955   -5.08431103804517   -9.42403035735001
C         2.03932377806506   -4.40434162303994   -7.96556266768894
H         1.57520765137480   -3.69132754839709   -8.63016815322286
C         1.58173487004083   -4.54005686704452   -6.67005801063156
H         0.76097361435139   -3.93408592176387   -6.30712420937444
C        -4.18422600188251   -4.32277534948292   -3.43963713893863
C        -3.89678034194519   -2.96039401898122   -3.42935554366368
C        -4.48493933299653   -2.07287018230505   -2.54122332285669
C        -5.40383358093007   -2.55653329394879   -1.61201064278542
C        -5.71384657301553   -3.91337094001692   -1.60033408686763
C        -5.10192712840914   -4.78207501023814   -2.50160258831290
F        -3.01365210925157   -2.50706195525868   -4.32916353381452
F        -4.17208034352210   -0.77632104490990   -2.56811908325965
F        -5.98988569083760   -1.72703983297598   -0.75430577925300
F        -6.60874490580109   -4.38073653885054   -0.73001453266098
F        -5.44296385452991   -6.06984818605932   -2.45421122884333
C        -3.86820289981336   -6.98100459294770   -4.49858319097234
C        -3.29255726572790   -7.85098874919086   -3.57520149912190
H        -2.48566989340986   -7.49370911266726   -2.94751978798921
C        -3.76240367766033   -9.14371456401124   -3.45364295029005
H        -3.32193981970148   -9.81268536724198   -2.72983210664411
C        -4.79893651217757   -9.58042823496026   -4.26360928206313
H        -5.16682332778253  -10.59134875295307   -4.17212273471670
C        -5.36054497294949   -8.72325569961247   -5.19445589272822
H        -6.16334950817746   -9.06637875847642   -5.83003752695878
C        -4.89817918179649   -7.42435687645691   -5.31752774960352
H        -5.33558899409765   -6.76478205489892   -6.05272413776629
C        -3.73226787200990   -4.63935147102975   -6.16249816024316
C        -5.05774727591723   -4.25510600643612   -6.34902588896148
H        -5.76730981529084   -4.33925012233924   -5.53604921821649
C        -5.46613331953847   -3.75929911921200   -7.57382700622557
H        -6.49458274155112   -3.46188000266008   -7.71545942857003
C        -4.55928291202747   -3.64137702905372   -8.61510932532339
H        -4.88314216196077   -3.25089697605943   -9.56797386647955
C        -3.23845008771399   -4.01550629750096   -8.43057770892324
H        -2.52970221614858   -3.91597316000064   -9.23870324761516
C        -2.82489346434146   -4.51050140698038   -7.20711991940122
H        -1.79285795144161   -4.79430522098047   -7.04530710790754

