27
CSD_code = SAVNOS | q = 1 | S = 0 | Stoichiometry = C6H12ClMoN4O2S(1+) | MND = 6
Mo        2.90734519268658    3.37628878946397    8.42476991016482
Cl        2.49882127625159    4.84636162688550    6.59582670169811
S         2.97744968505526    2.03489299659764   10.69049158632715
O         2.96043922117873    0.83461311395010    6.95879157212816
O         5.83029720460376    3.62286952845923    8.59445195910112
N         0.93160052801237    3.17103491684882    8.79681994469065
N         2.63472246608942    4.85102686100381    9.81391040669440
N         4.68379358221905    3.58159073952224    8.47064437455441
N         2.93129229947012    1.87255254605304    7.45626692541327
C         0.36207402056807    4.42246740204213    8.86695682187061
C         1.48475457962490    5.52418221888465    9.46441524591339
C         2.94196249306984    4.79146068942401   11.21584073953429
C         3.63048788993264    3.48475076064394   11.60311632594596
C         1.16241291719916    2.10137046505488   10.99769880162115
C         0.40829116078484    2.14272838652953    9.66243524196497
H         0.95820488026316    2.98355164972335   11.60336261723425
H         0.89788504776636    1.20711184166129   11.56248749522278
H         0.52529572740975    1.17454626549921    9.16009085179179
H        -0.65948085083179    2.29391106977637    9.87045238081856
H         0.18385553607742    4.81388350063237    7.85774998115098
H        -0.54531264865420    4.47615673831703    9.48231135498027
H         1.01000419252032    6.07386201866098   10.28728841577579
H         1.66943724574676    6.17440155637202    8.60119971490302
H         2.02701020095006    4.92976776950125   11.81461384899774
H         3.61332137745446    5.62205667347915   11.48661538250536
H         4.69177191816379    3.49194671070425   11.34431994213766
H         3.53386285640008    3.28851316430814   12.67167145686171

