32
CSD_code = SAVQOV | q = 0 | S = 0 | Stoichiometry = C15H11Cl2HgN3 | MND = 5
Hg        7.82647924943740    2.85345146197065    6.12942097014282
Cl        8.78593065587238    3.20317552405826    4.09496355665482
Cl        6.38199795360607    1.45822797447301    7.25067550422224
N         6.42872893070868    4.93427174901187    6.29027472489429
N         8.01067187967141    4.06565909399942    8.30184187765942
N         9.88356267374025    2.30575490422980    7.46333350661789
C         6.22568849470580    5.42664448429993    7.51554496432458
C         5.42456911360607    6.54667665210264    7.72714682878576
H         5.29709372808404    6.94939097611942    8.71949604712278
C         4.81511094110537    7.15201690698408    6.64107512986051
H         4.19021900685522    8.02172255033265    6.78118624749863
C         5.02554349405489    6.62635380033876    5.37709386971076
H         4.56931021076341    7.06591963612135    4.50474624210903
C         5.84740100106970    5.51555296904271    5.25380117941172
H         6.05388877000659    5.07476068041597    4.28694420814365
C         6.90274569996946    4.72519757775923    8.62375965000486
C         6.40190834366757    4.71960054305998    9.92487342645269
H         5.48217277627957    5.22735702569049   10.16630934556459
C         7.08176640961924    3.99939482259552   10.89184278573047
H         6.70394446239819    3.95342142692763   11.90247272233877
C         8.23860636693408    3.32176808028535   10.54794475820618
H         8.76400502259465    2.72896176731038   11.27907874335707
C         8.67463124984141    3.37782870022652    9.22481309166896
C         9.87156334614509    2.65461421950250    8.75282597339076
C        10.93796090524648    2.35632670741465    9.59838716957987
H        10.92543903084633    2.67459330281597   10.62883077144915
C        12.02648822574512    1.66778428137108    9.09001489653256
H        12.86411793475959    1.42488960587752    9.72710561716375
C        12.02247895246810    1.30242612546481    7.75411059274436
H        12.84875496693864    0.76398571362530    7.31846031933151
C        10.92605310543264    1.65095854138437    6.97887519565919
H        10.88056709780907    1.40131219510581    5.92665008368447

