90
CSD_code = SAVWIV | q = 0 | S = 0 | Stoichiometry = C38H41B8IrP2 | MND = 8
Ir       -0.64612406251250    4.89848901626027   11.29754250667713
P         0.15727002193143    4.22345266902685   13.54836486949718
P         1.49615509639797    4.29627095642617   10.22582159163388
C        -0.39967816094373    2.60012191564526   14.16054989007779
C        -1.49323792691087    2.46394782219089   15.01151139860344
C        -1.96565848583945    1.20742066164084   15.34566867587007
C        -1.36845352501452    0.07272577385981   14.81955052923845
C        -0.29641538571361    0.19919716348667   13.95101590882970
C         0.17883264013150    1.45393861646267   13.61775730550215
C        -0.34623434710540    5.31041700153403   14.94198875648251
C        -1.01438541194396    6.50183105503186   14.69685681755782
C        -1.36762662260643    7.33019616403095   15.74925224649345
C        -1.05195149533266    6.97761769094538   17.04997399978159
C        -0.37277904515419    5.79489635761601   17.29867363806555
C        -0.01700295957996    4.96713753777823   16.25121757729142
C         1.93715225591763    4.20969221450459   14.00240861765064
C         2.59952074373954    3.19607932295227   14.68342968724183
C         3.94913263107523    3.31882410178629   14.96757805080892
C         4.64857262002153    4.44869094662321   14.57931732279136
C         3.98824443332955    5.47416659134972   13.92017258081628
C         2.64108163668288    5.35526895000898   13.64015323556393
C         2.15520274845782    2.64140988914132   10.62529067786362
C         1.51245754331936    1.51051428643890   10.12026550146484
C         1.91018167749574    0.24255918671142   10.50392162992419
C         2.94607789566091    0.08220313911901   11.41053863883376
C         3.57550928834202    1.19938733386413   11.93608074611611
C         3.17915465597408    2.46867689015615   11.55472665430785
C         3.00686189224417    5.34692859066675   10.32910582002581
C         2.87457090825220    6.68852556834630   10.66367296674903
C         3.97670203145393    7.52512304570497   10.66444759335075
C         5.22325730102928    7.03101113107259   10.32048736327643
C         5.35715397750956    5.70221744338996    9.95266377269273
C         4.25519969970510    4.86755031802189    9.94452963271579
C         1.52255449377505    4.32484662470544    8.39322765945833
C         1.01529938681168    5.48310647980113    7.81197369283332
C         1.03212327536381    5.64301256628382    6.44039592822810
C         1.56187385595796    4.64821183076545    5.63388551126729
C         2.08719147594083    3.50421946346801    6.20875187448561
C         2.07694355441447    3.34288853136062    7.58379862076778
C        -1.44715556103119    2.92421575134090   11.01411079786427
B        -2.33055282237547    6.09246773955062   10.96172468773282
C        -2.63298647629771    3.20080821432295   11.86190302415783
B        -1.61359731983884    3.47042755255765    9.54993224173668
B        -2.10280079705037    5.20607754526520    9.49128073180864
B        -2.87945714450981    4.84465246806324   12.01607654275850
B        -2.93991786958847    2.49494824884545   10.31788921271954
B        -3.70245145931791    5.29375172134027   10.34407111205454
B        -3.97940794293344    3.72250652647457   11.02388630038283
B        -3.32580229935256    3.88488468949640    9.34388500588267
H        -1.97764678084684    3.34598133348430   15.40646701858672
H        -2.81071710055280    1.11280748295229   16.01226054468825
H        -1.74324306913862   -0.90628668619479   15.07898032511497
H         0.16689544766174   -0.67942762657218   13.52540517118523
H         1.01156388373631    1.55204096436208   12.93529967219779
H        -1.25639803904281    6.76777793925495   13.67902322238836
H        -1.89162299193393    8.25332705540259   15.55135806462338
H        -1.32971331694205    7.62228207976235   17.87093604984563
H        -0.11846342194102    5.51926098610623   18.31202929144390
H         0.51701076294574    4.04752409006181   16.44930635797114
H         2.07227157184041    2.30583463998229   14.99480186611970
H         4.45659660231132    2.52474053404636   15.49670244663796
H         5.70345959694074    4.53263665966572   14.79525264856406
H         4.52482477942559    6.36202963161734   13.61979342514436
H         2.11085454409726    6.14796754004762   13.13217132887867
H         0.70067123178824    1.62780602654395    9.41721504139602
H         1.40835004083486   -0.62336482036342   10.09625495975844
H         3.25757226994901   -0.90779886871952   11.70965197671868
H         4.37625713020545    1.08465670717105   12.65210288882132
H         3.67144610650761    3.33223458181627   11.97624439948498
H         1.89648780435788    7.06931285825972   10.92104982858724
H         3.86184463124397    8.56535335795043   10.93188440588998
H         6.08648038028339    7.68030051829486   10.32560308842976
H         6.32370949542671    5.31640022108514    9.66213747714878
H         4.36827269937208    3.83898185015922    9.63239874270370
H         0.60090535624650    6.24729995490066    8.45343322683636
H         0.62927119395977    6.54145587326125    5.99723090440985
H         1.56981103981376    4.76557681120154    4.56030589455621
H         2.51232064274635    2.73123612750608    5.58452151916575
H         2.50175186962576    2.44788199938084    8.01503945378673
H        -0.09467295289488    6.30849927057668   11.57468205244791
H        -0.79066311806140    2.11731834526176   11.33195596776743
H        -2.36857158014934    7.25006388129576   11.16437362423001
H        -2.75404803126644    2.59170652070016   12.75253104477926
H        -0.90948012148817    3.04422225674932    8.69625409859506
H        -1.78929906080558    5.81851086651711    8.53144513681085
H        -3.23213989562503    5.14866643759213   13.10556780056438
H        -3.17654764193795    1.34612015315204   10.23075574584292
H        -4.62109451607211    6.00100100895535   10.12706396767537
H        -5.03700360667491    3.43122183811865   11.45552908114051
H        -3.91450445594221    3.76512429327524    8.32845109115007

