58
CSD_code = SAVYIA | q = 0 | S = 0 | Stoichiometry = C23H30Br2N2Ni | MND = 4
Br       10.60528776786194   14.99834167909117    2.51540632673724
Ni        9.47779560997869   16.32796042781369    3.99310465187084
Br        7.85306454171874   16.49353530668749    5.53548754705595
C         9.20233875797772   19.46130885484794    2.93229639732739
N         9.99879529189549   18.46904828893084    3.51700708334294
C        11.80292040612790   17.59440898579865    4.70800290152001
C         8.81796681813448   20.57603270457710    3.69687932656985
N        10.94312787972514   16.58135904845278    4.96750869592442
C        13.07539686954895   17.58655380993197    5.31271442837097
C        11.22889780166684   18.64864442522040    3.84446853597974
C        11.99895275737047   19.83651409010566    3.35027699340578
H        12.50755854583227   20.34488417539556    4.16527668238719
H        11.28086271952077   20.54595039503477    2.93169649396544
C         7.95508520861944   21.49771925546666    3.12086501750929
H         7.63954239553458   22.35417473616995    3.69603325078622
C        12.44381508631505   15.57329840363406    6.48978582910567
H        12.65721947298730   14.78023214281901    7.18675035625473
C         8.70178043682446   19.27149154129169    1.63586526061087
C        12.97724658610388   19.45041503496319    2.22744710958187
H        12.39351340396084   19.28438524581118    1.31921086986137
H        13.63969258017036   20.29867291581259    2.04292684836336
C         7.85493047189385   20.22607469749437    1.09882647805095
H         7.46803989844033   20.09765824451395    0.10104827164039
C         9.02953433974693   17.99570515928926    0.89653581988106
H        10.03094615972280   17.66173136096673    1.19380367661407
C        11.23672903060520   15.61026584886445    5.82455029992583
H        10.49212132858076   14.83316193862432    5.97145375360693
C        14.17750554890261   18.55759838227991    5.01600600135901
H        14.96257002468410   18.42192772543197    5.76325871073186
H        13.84045758977826   19.58641447680817    5.10666431869131
C        14.80187752545836   18.31269765313354    3.63182575901298
H        15.37539089812951   17.38412254492027    3.67595279221542
H        15.50128052957540   19.12589605786370    3.42759370805923
C         9.23523066178344   20.75167349704417    5.13970372099495
H         9.99012919167681   20.00191576753812    5.39849790604917
C        13.81001825146679   18.19597696786539    2.47867958265999
H        14.38110679919687   17.98920769674450    1.57102827761756
H        13.15285839930166   17.33838242531496    2.63394906106885
C         7.49120399550576   21.34174577262064    1.83020993758471
H         6.83092936116627   22.07923383247225    1.39934256672968
C        13.36929861433543   16.55981238665632    6.20477677948281
H        14.34021500813998   16.53458246857808    6.67597886719831
C         9.84624580653227   22.13225431575304    5.39212002884481
H        10.65482710549239   22.33623962759049    4.69248470027680
H        10.24362525505096   22.18045374893207    6.40377503542780
H         9.09988042655126   22.91472670995908    5.28728927247903
C         8.01376860270832   16.93374970406100    1.33382319532148
H         8.09299336897966   16.75077762098844    2.42454250006183
H         8.19204357958369   15.99603123633787    0.81174039637188
H         6.99709456611820   17.26755325558041    1.13387456774131
C         9.02346147703619   18.13759058527237   -0.62347010737955
H         8.01304386869107   18.25924011185103   -1.00610359475119
H         9.44491775354589   17.24034571537017   -1.07092087931777
H         9.62252078533258   18.99152600624256   -0.93338186583079
C         8.02676455183413   20.51787277681026    6.05075089132255
H         7.23537047174063   21.23051706959327    5.83317015954393
H         8.31687096801203   20.62796976906767    7.09319873908284
H         7.63483684681806   19.51423537370624    5.90861006510310

