68
CSD_code = SAWBUQ | q = 0 | S = 0 | Stoichiometry = C29H28Cl2N4O4Zn | MND = 5
Zn        9.69739150525022   -2.21536921504515    2.67984745884623
Cl        7.68555795272177   -1.29094928791182    3.07511855719162
C        10.77745373273331    0.35264750509511    3.63089728778818
C        10.37856126875917    3.91771157461109    2.53651438902589
C        11.47060631549001   -0.05981319574519    6.02470587741209
H        11.75278890302931    0.97239110647126    6.15674225568116
N        10.65361935861120   -1.79483795743354    4.62174879746060
C        10.78145426824634   -2.65588875208834    5.61301916835027
H        10.50436137032807   -3.67618159738938    5.38610899651390
N        10.58138755791274   -0.30094123798383    2.49240593032161
C        10.72823572739843    1.73902489893429    3.68445849772581
H        10.84581450715617    2.26088940174080    4.61991333305500
C        12.22125074214572    9.28973133283609    3.32469568382616
C        10.44814095782338    2.45952290928963    2.52037323938246
C        10.98142010420936   -0.51439003926513    4.80267541460034
N        10.19197898232330    8.10944573817080    2.58123017073256
C        11.23301919693303    4.67067125413750    3.34331009601142
H        11.98053292637177    4.16989252674672    3.94122469845622
C        11.25058708220662   -2.28452220333217    6.86500314552255
H        11.33844237128147   -3.01451931138898    7.65337951676722
O        12.63617658783676    9.50094702894366    2.21548980405279
O        12.94797228012284    9.39093054411495    4.43275203844905
C        11.60261542408643   -0.96021827177553    7.06890233664107
H        11.97776720220794   -0.63054908405370    8.02668433485848
C        10.25487741717006    6.74179041739003    2.56453894204210
C        11.18414462015317    6.04561418118199    3.35217034681697
H        11.89456893536203    6.58574877239331    3.95745933791854
C        10.78495334747717    8.87928742391417    3.64325317150965
H        10.75854268475997    8.32973164357783    4.58530660470214
H        10.19358979622723    9.79092748208100    3.77973162009725
C        14.31096116820278    9.80626829406013    4.27550524441401
H        14.79570313814018    9.14670110422282    3.54745806913694
H        14.32138277639412   10.82466625462922    3.87251036371908
C        14.99082553825221    9.73948209898994    5.62902618827537
H        14.48438804463666   10.39182647393934    6.33497045986725
H        16.02533247969663   10.05502306765232    5.53204091399390
H        14.96398403909413    8.72362473830074    6.01368187198551
C        10.28756292366707    0.35134688677883    1.37446142290287
C         9.92194482273256   -0.05886931987401   -1.09163638575820
H        10.10522741570606    0.97722137974201   -1.32705676117106
N         9.79939061751562   -1.80199834799977    0.51833595171850
C         9.51547933160212   -2.66490716236216   -0.43825925729091
H         9.37564179175033   -3.68867869000905   -0.11928774848379
C        10.21882944023527    1.73773839002573    1.34612023300359
H         9.97998385442278    2.26166461623774    0.43539583191944
C         8.19404120063643    9.33015651962784    1.82857160191859
C         9.99864787465182   -0.51664081908754    0.22136573313658
C         9.45635665567263    4.60827397110006    1.74814489435611
H         8.75038988532523    4.05529567005104    1.14663920800298
C         9.40976778069397   -2.29081640509093   -1.77028202613650
H         9.17162093036256   -3.02242034051857   -2.52540672030753
O         7.85564226686439    9.75271117813415    2.90301511360618
O         7.39378701749631    9.22467601852820    0.77461839873370
C         9.61989824608451   -0.96133947743859   -2.09806713457347
H         9.55252724026038   -0.62894617755555   -3.12360941579853
C         9.38467587885271    5.98188037704698    1.76793095747839
H         8.62433051890786    6.47014736079956    1.17927272805586
C         9.60940804488538    8.85865981671341    1.49688719087081
H         9.59561063724693    8.27078506319275    0.57921062498342
H        10.22652899999190    9.74573177055766    1.31403131711437
C         6.04062156315232    9.66983568426338    0.94026975318586
H         5.53847675471832    8.99922853539409    1.64589012289776
H         6.05360897423967   10.67493381754275    1.37503309581148
C         5.36191209549177    9.65629827702694   -0.41542064026234
H         5.87890614809974   10.32183401666648   -1.10136904933720
H         4.33250720091082    9.98527999386169   -0.30929579963057
H         5.37269309480298    8.65218112634233   -0.83024414406018
Cl       10.13869048228164   -4.38928134979864    2.59598674000478

