66
CSD_code = SAWGAB | q = 0 | S = 0 | Stoichiometry = C32H28NNiO3P | MND = 4
Ni       -3.07536861287803   10.51425289245537    8.06185409685536
P        -4.44752022769496   10.28651052037617    6.41926372385194
C        -6.18667237792460    9.86349694289445    6.75914391305732
C        -7.00532952146654   10.87901323822205    7.24693161297229
H        -6.60361842683110   11.87980975473107    7.33265318619603
C        -8.30917218180267   10.61142644539493    7.61277180855140
H        -8.93929420299183   11.40368246920616    7.98946042273042
C        -8.80621324769721    9.32210266990416    7.50303123774804
H        -9.82411016222284    9.10897007675331    7.79405159069756
C        -7.99571069188776    8.30765772795057    7.02430756978536
H        -8.38190277526149    7.30218123250335    6.94140930439256
C        -6.68781303849337    8.57335323256683    6.65655066623672
H        -6.05543856050446    7.77663792389702    6.29185283916729
C        -4.59253991146398   11.49164351870903    5.05857699413595
C        -3.46262532193876   12.22740648562993    4.71338779739919
H        -2.55274140543991   12.09724552581745    5.28173256105332
C        -3.51023746017023   13.11116097129870    3.65040264768009
H        -2.63097698359824   13.67975598764116    3.38639406510455
C        -4.68157777220965   13.26759530071831    2.92756945680439
H        -4.71985016817241   13.95964111930782    2.09897435506641
C        -5.80739529723591   12.53559910350554    3.26860688032110
H        -6.72165598521049   12.65452174320243    2.70483857694244
C        -5.76795574736783   11.64866723692738    4.32961123459514
H        -6.65132949015850   11.08305944695524    4.59116261573700
C        -3.80150522630608    8.82130309316494    5.55347477185649
C        -4.23862047682493    8.43773178557398    4.29045111399783
H        -4.99526838184310    9.01941974789234    3.78257665333341
C        -3.69574885915271    7.31668438484741    3.68899000116516
H        -4.03200370484919    7.01764126502069    2.70687075558526
C        -2.71743982047724    6.58007351361225    4.33884126521693
H        -2.29409341956087    5.70889615810651    3.86092094835256
C        -2.27521867538676    6.96309989023363    5.59498306361766
H        -1.50642439958752    6.39242169389450    6.09511444888872
C        -2.81651603040413    8.08226525478848    6.19981040611176
H        -2.47200611622168    8.41156846993409    7.18439837620789
N        -1.71945813606902   10.44237284548550    9.50557768516039
C        -0.53706956700771   10.87654822505880    9.03522948201432
C        -0.50233082105561   11.27479342801314    7.54515716328633
O        -1.61444391833178   11.14852668813900    6.95352896896169
O         0.54306922458012   11.67211229379030    7.06422477552842
C         0.58965422663134   10.97942665036154    9.82062098655866
H         1.50556070358832   11.33733799355398    9.37836440382262
C         0.52485018724343   10.62275229449635   11.16938816070666
O         1.65074165498223   10.74434589979771   11.89353651100756
C         1.62619792012232   10.39768158902358   13.26003886087487
H         0.92232228038762   11.02244333542587   13.81827149868250
H         2.63552171565352   10.57604547156991   13.62619796396640
H         1.37056020318779    9.34310863177658   13.40047086235077
C        -0.70574518826317   10.17028722471604   11.65094827154446
H        -0.84088520551567    9.87516092509582   12.67869164786616
C        -1.78338894296739   10.09939100621731   10.78859444798047
H        -2.74114195188349    9.75090210497262   11.15337441386344
C        -4.45008411078859    9.99565589708704    9.20276333109924
C        -5.06240463577880   11.04562038623037    9.89556314535188
C        -4.60649504190467   12.46187395803718    9.65083419959479
H        -4.10422900183606   12.85897500089293   10.53336274985867
H        -5.45140099687323   13.11061847106672    9.42414823076789
H        -3.89844110263581   12.49057457335937    8.80265102805534
C        -6.07484122347062   10.77321533103736   10.80482605075753
H        -6.54515585233009   11.59025369642766   11.33504883147590
C        -6.48839027095303    9.47214926680243   11.02961812518646
H        -7.28360971443356    9.27139212122870   11.73270348905388
C        -5.88431220113448    8.43140110654913   10.34821063832242
H        -6.20495092043232    7.41325764330528   10.51722593413749
C        -4.87395653114306    8.69166920294137    9.43468248063938
H        -4.42584810038538    7.86390991398905    8.89817470012271

