69
CSD_code = SAWGII | q = 0 | S = 0 | Stoichiometry = C36H26I2N4Pt | MND = 4
Pt        5.61398519230202    7.33212841495134    3.62380137404446
I         7.65203120923774    5.71137390686286    3.13451568954063
I         6.97136681618256    9.01719315924543    5.15339346290001
N         3.67458050188833    7.91390886697542    5.75532831039865
N         3.02590604868796    8.89840892689028    3.92263155979575
N         5.21981533271117    6.70536842385050    0.77895610824882
N         3.68925260399642    5.68220291613152    1.94521334236115
C         3.95297862077234    8.06201473611204    4.44612880896140
C         2.58582863737706    8.68291531344114    6.09507733877966
C         2.16597547318261    9.32071129271068    4.91754726937781
C         1.09596798393687   10.19770138567226    4.90898442166828
H         0.79283926695084   10.70442573708647    4.00606740675059
C         0.44300452911842   10.39842361045058    6.11096389727830
H        -0.39477172624607   11.07739621811689    6.14874005798980
C         0.84300292707201    9.74892059239818    7.27633604298216
H         0.30297853263739    9.93515059074683    8.19174501398797
C         1.92139662665366    8.88383413730462    7.29362754365159
H         2.23933109303939    8.39830004134467    8.20207678662473
C         4.38411031969411    7.04617074802781    6.65597067034257
H         5.10341916608130    6.44977127865455    6.08068506409560
H         3.67950121696315    6.37629167003418    7.15206478396817
H         4.92595999249060    7.62703761670044    7.40491928714689
C         4.72233774381721    6.55421709616624    2.02129702350582
C         3.54916403972673    5.23992425673990    0.64404373563934
C         4.53435837930695    5.90325168130736   -0.10368541737930
C         4.66203846507057    5.69026644727564   -1.46626655145024
H         5.41564748111230    6.19634212109733   -2.04770003232478
C         3.79117172972488    4.78559534211970   -2.04491819313838
H         3.86359084213028    4.58859062369655   -3.10332135854173
C         2.83155061706147    4.10947561557707   -1.29535883951273
H         2.18523667116342    3.39901715051829   -1.78695962003871
C         2.69101164762525    4.32330501316436    0.06329451340635
H         1.95270108505547    3.79737518457296    0.64834325595099
C         6.28319815286072    7.60501628345645    0.42133174180550
H         6.53296317506271    8.22251307140716    1.29339807010415
H         5.95755452570514    8.25286570403434   -0.39455639925142
H         7.17221193151858    7.04984877103843    0.11530136710488
C         2.72318507615096    8.91889877437812    2.53654587805421
C         3.15692268370601    9.96923902522266    1.71537357076116
H         3.71914542012496   10.77774264112771    2.15686963399392
C         2.89564662751023    9.92691379371233    0.37434422347301
H         3.25585738736951   10.71003331672565   -0.27607783609056
C         2.14999942968953    8.86810828581723   -0.18499407958267
C         1.86025487648204    8.80814129557569   -1.56453194635121
H         2.23313873949910    9.59453971584776   -2.20457018001606
C         1.11689181339773    7.78428930949123   -2.07996877386834
H         0.90187734083750    7.74588459141838   -3.13713856329661
C         0.60984581971265    6.78231863115415   -1.23833765332989
H         0.00136434121451    5.99521751172211   -1.65676319278532
C         0.88213891722770    6.80127719793914    0.09985385441562
H         0.48352356250932    6.04114855497789    0.75593586160205
C         1.67637384946923    7.82584329524309    0.65604958832792
C         2.01391030837689    7.84583623379503    2.03005474079438
C         1.75540030004895    6.68779272397937    2.92675627341369
C         0.69885984857968    6.68384760529489    3.86801371727515
C        -0.30296154457644    7.67696154004416    3.86643453412109
H        -0.28324144052979    8.43141777974443    3.09343199687604
C        -1.28731911910966    7.67234710466256    4.81315362120148
H        -2.05120696945384    8.43479686587038    4.80518348482241
C        -1.31560026156526    6.67769149812022    5.80274808761648
H        -2.09385343005053    6.69744572456064    6.55056521163462
C        -0.37827817949384    5.68376397161189    5.80959226988929
H        -0.40928289092009    4.90255874937111    6.55514572548844
C         0.64470510507948    5.64796946007443    4.83857675118683
C         1.60880862475903    4.61860520782967    4.81000138947275
H         1.56136504277833    3.84050781002686    5.55727356685458
C         2.58440800011362    4.59747753870258    3.85286335570126
H         3.32238570428640    3.81095980588907    3.81430915595531
C         2.65913816506434    5.64167049415154    2.92028819561882

