57
CSD_code = SAWHOQ | q = 0 | S = 0 | Stoichiometry = C18H30Cl4N2O2Zr | MND = 6
Zr        1.53286953296216    2.41996830828588    4.35221633104664
Cl        1.85943614502176    3.53222991200043    2.26999643085127
Cl        3.00901797187085    3.94333188125699    5.48339802566221
C         2.83747215925570   -0.64407172414676    2.65588079232012
H         2.42096607477793   -1.02851719619827    3.58897433365937
H         3.55400193574825   -1.34887555210689    2.24208538907784
H         2.01759719929053   -0.52462419435679    1.94466826108039
C         3.47111095549433    0.69794862344346    2.90564548272237
O         3.11934789436283    1.32767253527434    3.96892642030966
C         4.41284333114108    1.17502920368756    2.00084892197735
H         4.61764611282894    0.54888096590461    1.14745406586942
C         5.10073884693777    2.39502551265848    2.07277499392963
N         4.95506734163116    3.22530401019724    3.07896127180786
H         4.23612063455051    3.01759829878896    3.77960143926614
C         6.07262205038280    2.73121051891421    0.98675014994461
H         5.85148066211201    3.71653331053771    0.58143121850274
H         6.02223185133836    2.00018749045880    0.18672195120146
H         7.08807936889291    2.74247170874879    1.38187347167399
C         5.58057559438202    4.50877765706796    3.26835204409620
H         6.51972830284946    4.56115930935860    2.71563469675716
H         5.78173267020656    4.60622735404578    4.33820664419740
C         4.65537139857420    5.66723729821899    2.85339945176480
H         3.70550125301180    5.53885971310762    3.37675831652855
H         5.12073950676074    6.59842172903318    3.17948853274779
C         4.40825326970181    5.69673752850728    1.37818512546861
H         3.70669377723854    4.95696834907026    1.01832865911529
C         4.97668565738957    6.55769456563057    0.55378163607525
H         5.66119279995083    7.31482462743499    0.90406548354001
H         4.77583880734049    6.55469682875670   -0.50427877572921
Cl        1.20609517480696    1.30747075349943    6.43429110441539
Cl        0.05660971084614    0.89658926475480    3.22080448012237
C         0.22758126255543    5.48418737552295    6.04822292471365
H         0.64337697388178    5.86887914962739    5.11492302429793
H        -0.48885500845755    6.18871673535207    6.46261177797239
H         1.04799432042584    5.36484384760941    6.75882650540645
C        -0.40578656397851    4.14200895997440    5.79864587222476
O        -0.05365156190613    3.51212867633495    4.73558129461420
C        -1.34759671501038    3.66489947530973    6.70334765959666
H        -1.55268837467213    4.29113701179640    7.55660756142049
C        -2.03525030912217    2.44475921756613    6.63146731156769
N        -1.88934806126662    1.61445076923423    5.62534443479699
H        -1.17040706690465    1.82226185688456    4.92472923828623
C        -3.00714373843072    2.10843802890176    7.71743873886361
H        -2.78601492866161    1.12304963606245    8.12260142266782
H        -2.95673827768059    2.83933939124114    8.51757619844054
H        -4.02260337434681    2.09725981434561    7.32231824244331
C        -2.51478257471761    0.33096510130174    5.43580754781660
H        -3.45397192330009    0.27848932325434    5.98845316174411
H        -2.71585606192035    0.23361107686857    4.36592708398260
C        -1.58956311851768   -0.82750085871200    5.85070581354602
H        -0.63964939672934   -0.69901533249173    5.32745490220548
H        -2.05486106961617   -1.75866212485619    5.52444796137051
C        -1.34258011395504   -0.85719969956704    7.32593790470640
H        -0.64105677150218   -0.11748027851349    7.68596346180135
C        -1.91114105185016   -1.71824070007557    8.15016463124611
H        -2.59570013721031   -2.47524657792716    7.79970972757637
H        -1.71047434875815   -1.71534846687232    9.20825924669774

