56
CSD_code = SAWHUU | q = 0 | S = 0 | Stoichiometry = C25H28ClPPd | MND = 5
Pd        1.97460829457938   12.43734293812919    5.78258891639851
Cl        3.26700423065819   13.49315987879036    7.35827522606909
P         0.92525245810695   11.08824977642277    7.26320192812424
C         2.71017485386867   13.52721665692031    4.11373178498335
H         3.72611443446780   13.90314759859076    4.03372247712425
H         1.93579669795772   14.28088227733209    3.95970780130535
C         2.45378447162613   12.19459719665621    3.75493986268072
C         1.15015972898686   11.69656061184127    3.97524530931954
H         0.95963466483605   10.64531110690875    3.77944417737529
H         0.29852530919308   12.33782980857956    3.75743667633659
C         3.59777122725777   11.26760371403130    3.43144660031875
H         3.92162288617330   11.45190424420546    2.40555418747916
H         3.29884337292071   10.22226604307446    3.51169943217862
H         4.45195878961366   11.45526169361239    4.08875473348658
C         1.52559240055935    9.38103073755260    7.03678215046285
C         2.76057731441578    9.29261006391547    6.39379585813577
H         3.25001290859518   10.21661428574954    6.06683734478842
C         3.37228225838835    8.06745606595945    6.20491698298172
H         4.32952871087971    8.00856141145279    5.70756191980370
C         2.75596105075341    6.91344298067589    6.66183682871014
H         3.22608672379662    5.95274362589299    6.51244916227174
C         1.54216058061056    6.99416067183487    7.32403924634096
H         1.07093967370174    6.09570072494075    7.69598382757567
C         0.92985543877573    8.22029076572469    7.52094543078451
H        -0.00718503422496    8.26570740425568    8.05594406898795
C        -0.88336815579211   11.10089078397414    7.01657135559877
C        -1.61242152108200   10.00592424242958    6.56676061143120
H        -1.10736541463563    9.07984763549202    6.33846521292593
C        -2.98141520910702   10.09880427582741    6.38383774725113
H        -3.53515345272323    9.23794176900446    6.03868493961583
C        -3.63822888026520   11.28967894991864    6.64047005387422
H        -4.70833937518858   11.35830384369394    6.51268510956392
C        -2.91426897822186   12.40412012100983    7.02974973463859
H        -3.41228121348598   13.35010918437174    7.18824572724545
C        -1.53966772460361   12.32766498054733    7.20053089493894
C        -0.75590353004217   13.55132359246167    7.49198375364231
C        -0.65455842441352   14.07684319998575    8.77393448928175
H        -1.16376658404401   13.58696618364931    9.59239602076667
C         0.09915238389203   15.21568754959937    9.00340532876208
H         0.18521323749802   15.60684341001068   10.00646522219615
C         0.74597984541350   15.84735784205048    7.95622468871723
H         1.34796227650584   16.72327442965323    8.14249233373804
C         0.61491616208456   15.35954582127616    6.66582627739875
H         1.08505048801185   15.88251257326058    5.84340636956350
C        -0.13358499628675   14.21384973967003    6.42863530465596
H        -0.33692193953926   13.88301175413550    5.40886353701545
C         1.15303838456191   11.32306247793404    9.10134569097046
H         1.09079314200473   12.40761249499644    9.24811565115005
C         2.56356380665065   10.88147110316932    9.48117991204487
H         2.77117028443997   11.16091507224585   10.51198393625915
H         3.29029479572168   11.38276481715484    8.84221048432910
H         2.68194499949959    9.80305355206955    9.38459122253578
C         0.09612262968524   10.62385174995355    9.94865904836669
H         0.21072773547814   10.92405157604952   10.98897198201961
H         0.21325859544230    9.54372185595079    9.89914097098171
H        -0.91110681387088   10.88174113540951    9.62562445429806

