61
CSD_code = SAWHEG | q = 0 | S = 0 | Stoichiometry = C24H28Cl2N2O4Ti | MND = 6
Ti        0.71180809656434   10.99498504439434    7.48820774328265
Cl       -1.23870646296706   10.73420237989495    8.57456305087462
Cl        1.80729871601420   12.05582935553269    9.13821680299168
C         2.54865404303384    7.64549896544575    9.08186140729042
C         2.46841283210627    8.85643381209152    8.18843747506711
O         1.32243436977003    9.41496143415423    8.07515901685528
C         3.58194647166893    9.30683602561641    7.51048354553372
C         3.56409839178908   10.42046452010576    6.63897963722266
N         2.46211485244136   11.06216170089277    6.36916519058741
C         2.47065377596295   12.21846157349075    5.56604435492102
C         1.95690521427769   12.18624964761529    4.26848022270373
C         1.87017811207662   13.34452964774112    3.52579867242132
C         2.29160508511398   14.56459442809960    4.05696236529502
O         2.14403736410192   15.64925807234937    3.24352390779871
C         2.56749079114696   16.90560841270512    3.71575725349088
C         2.80995516873840   14.59849407086753    5.34793819574373
C         2.90137726439254   13.43508729982396    6.09129300081532
C         4.87198608869099   10.83212913761887    6.01720205552122
C        -1.17260184660727   14.35448458667852    5.99070803530865
C        -0.80308855966547   12.89457817888568    5.98990099288266
O         0.13172938646575   12.53968390434893    6.78975411702406
C        -1.43979887295780   12.00148018481732    5.15397321198548
C        -1.13202461432723   10.62171602226734    5.11133490782505
N        -0.16779996364704   10.11139496342151    5.82479263402815
C         0.06949652246680    8.72349065914971    5.83345869363771
C        -0.75492329484268    7.87621149626789    6.57106536074712
C        -0.47213574916669    6.52578229216447    6.67225352383296
O         1.01854773582167    4.68435533401074    6.06995539849998
C         0.21690102499738    3.77768584349574    6.78863839566022
C         0.64084386384635    5.99445714373320    6.02783838921592
C         1.46310527652491    6.84080974345059    5.28232552547524
C         1.18369830065802    8.18760346230390    5.18585315772588
C        -1.95481014302798    9.75481933665245    4.19550532285912
H         1.89224774777398    7.79207574597669    9.93810446981667
H         3.56484371221005    7.46325590837717    9.41626992889522
H         2.19411999833789    6.77655492991888    8.52728906698538
H         4.52157763759416    8.79950695524277    7.65946391001372
H         1.61689713262616   11.24814923308598    3.85100624778434
H         1.47010033373976   13.33316481826438    2.52437856128360
H         3.63803217127524   16.90959085467911    3.94399542401464
H         2.37019365690078   17.60543652070238    2.90530998183667
H         2.00563352480356   17.21415303201039    4.60328260800077
H         3.13751775351558   15.52480143514243    5.79265143155119
H         3.26874929574975   13.46652474455368    7.10855232495896
H         5.52913749867547    9.97491184533881    5.90084883649836
H         4.71175499365536   11.30679720284449    5.05116524683527
H         5.36250224718570   11.55173183458382    6.67167301209929
H        -1.42139088856500   14.65256046386496    7.00884303012622
H        -2.00937054200447   14.55895050532291    5.33134806961130
H        -0.30642934295663   14.93625002500287    5.67686927284513
H        -2.22756461656301   12.36053909814344    4.51156273336971
H        -1.59816501489575    8.29718591777771    7.10262917412758
H        -1.12284286559614    5.90277434734168    7.26496694782140
H         2.32352021388901    6.41605631999757    4.78988502361508
H         1.83407773468753    8.83613349335385    4.61455623226569
H         0.69466576126574    2.80642658279126    6.67069684881166
H         0.17406233771335    4.03203456636543    7.85259120531012
H        -0.79941255879672    3.73194385572182    6.38474682342363
H        -2.35938302877872   10.33729592696654    3.37254635693579
H        -2.78678718123127    9.33529572750020    4.76031168597404
H        -1.36117695366966    8.92945942903493    3.80622398007446

