25
CSD_code = SAWKOQ | q = 0 | S = 0 | Stoichiometry = C8H10I2N4Pt | MND = 4
Pt        4.76977738188198    1.97854246574120    1.27839268052356
I         3.63637814460594    1.33859239169463    3.49253494794988
I         7.02275193871618    2.51603753504734    2.38912661976372
N         5.42007740266805    2.44135124084235   -0.58173348880544
N         5.08684618525770    2.69118930975593   -2.74765891234619
N         3.11979298268024    1.60468600322294    0.16700988407515
N         2.07347192385002    1.47560248691813   -1.77033412445447
C         6.56385389894756    2.91389875301013   -1.12514018049497
C         6.36875997732011    3.07220111083874   -2.46300968721242
C         4.52257777541891    2.30279681496029   -1.56825942502520
C         3.24235313513954    1.81028359821259   -1.15232913480087
C         1.21621775598579    1.05898592782246   -0.79000338160159
C         1.87116417990491    1.14285904856448    0.40039564530510
C         4.53371857244657    2.75716597723055   -4.07180476928827
C         1.71431078722300    1.48818436442578   -3.16120787643824
H         7.43812969519417    3.10772556193094   -0.53666255096654
H         7.03230391284491    3.42283559669941   -3.22561778021182
H         0.22041487040957    0.73839251212144   -1.01452231430599
H         1.52577592263885    0.90371219694468    1.38617386987199
H         5.29206104213877    3.16768270618786   -4.73616163565340
H         4.26048135154021    1.76651203280512   -4.43671572227512
H         3.66326091765045    3.41341897424686   -4.10014896858453
H         2.38061657820933    0.85072020547966   -3.74326803763665
H         1.72782773279933    2.50125272338256   -3.56465997691359
H         0.70227593452865    1.09807046191308   -3.25379568047382

