38
CSD_code = SAWMEK | q = 1 | S = 0 | Stoichiometry = C16H19N2Ru(1+) | MND = 9
Ru        1.52545340665914    4.21048740386547    4.17859879178749
C        -0.09459153589135    4.74081757339071    3.04835086004551
C        -1.16844106528088    3.92674794273259    2.74545689940814
H        -1.25743371753672    2.94791213561716    3.19908749627382
C        -2.14797320606800    4.36162308934343    1.86182322370684
H        -2.98029170197738    3.71636573968845    1.62615617423647
C        -2.05940573284310    5.61677840319722    1.28685677942621
H        -2.82105115369813    5.95203506760606    0.60075388967365
C        -0.99802961596805    6.44962481356459    1.59901547864536
H        -0.92870031337245    7.43432145734580    1.16133683621690
C        -0.01959325546394    6.01039284157063    2.47755144902658
C         1.17069262376340    6.84099696619688    2.88471218450728
H         2.00121193792329    6.68101191138166    2.18601077812806
H         0.93524400103965    7.91183964962340    2.89750601819749
C         2.84330500333671    6.99965754212578    4.65429826839943
H         3.64417636659392    6.75203789655768    3.95752396436192
H         3.10862402425531    6.64532052729089    5.65059732971274
H         2.74750309175244    8.08915367086774    4.68796378618165
C         2.38668749887774    3.06613271144005    2.42304609998595
H         2.13700497697950    3.07711105415375    1.36752384914005
C         1.74990110705881    2.14358214825996    3.29194576381654
H         1.01903395761500    1.44580376890163    2.90074502311902
C         2.14675357080268    2.07485557372182    4.63962754478781
H         1.70575051947486    1.32547331044207    5.29005781443193
C         3.23806934780909    2.85031635792647    5.11372338488456
H         3.61615482223440    2.69432954416504    6.11589309441667
C         3.84488625880399    3.76825469207062    4.26385345948664
H         4.70955258360344    4.32859002761580    4.59834180529796
C         3.39657466259146    3.90317337924704    2.92023760192933
H         3.94200889480846    4.54925254192469    2.23866410435814
C        -0.44242495886787    4.18607609396223    6.52005326668668
C        -1.38222302351763    4.08936903981876    7.59083444116927
H        -1.59111722685955    3.04098409007178    7.80400536551328
H        -2.31144516718289    4.58395684884879    7.30665931887201
H        -0.98428964234302    4.56189772526979    8.48910631724244
H         0.85780337643007    6.67708152935733    4.87337255842090
N         1.59334876026880    6.37413548310062    4.22072406223418
N         0.31027052418579    4.28079944773647    5.64738491627214

