22
CSD_code = SAWMAF | q = 0 | S = 0 | Stoichiometry = C8H6N2O5W | MND = 6
W        -2.49480233178148    4.61704381826841    7.56654462484685
C        -3.05359183945842    2.56037857423779    7.09939245054044
N        -4.09569509423015    2.16760625294921    6.37253413806050
H        -4.75596219417756    2.80047569557524    5.95485315792678
C        -4.22248862069635    0.72406804043136    6.22013672806205
H        -4.17449323351719    0.44220498089463    5.16431117334484
H        -5.17401623934000    0.37476160917443    6.63122950416245
C        -3.01477666585635    0.21445925918327    7.01931585567928
H        -3.30812493940898   -0.41162519799266    7.86694149740572
H        -2.30916834535303   -0.34629627432175    6.39958093312542
N        -2.41523483230006    1.45873775583207    7.48337499896846
H        -1.58245378081502    1.46308869663491    8.04675442026512
C        -1.74613719510995    4.04211770594288    9.32463952788303
O        -1.29817968774909    3.76223666903992   10.33910788634426
C        -0.71579348877255    4.32376280855556    6.70851690159077
O         0.30970230553440    4.17441055787100    6.22668751452882
C        -4.27597217107431    4.90207434742437    8.42289363147636
O        -5.29120849443226    5.08761965014148    8.91393385913796
C        -3.23020465531607    5.24156990516283    5.82000499635213
O        -3.64465519552637    5.64895188892271    4.83498182922454
C        -1.98410853231464    6.49580114150154    7.99374119328514
O        -1.69073476830464    7.57295211457116    8.23782317778927

