44
CSD_code = SAWMIP | q = 0 | S = 0 | Stoichiometry = C21H16O5PRe | MND = 6
Re        9.69106764210414    4.55581533840695   10.21196221026995
P         8.69108719339197    3.68506283842179    8.17203735639644
C         7.13381058071865    4.49374582430279    7.68292908187361
C         5.88879511851814    3.92149993479569    7.91126867101227
C         4.74011282092790    4.60582892183329    7.55269951690317
C         4.82923212337138    5.86061427674090    6.97445770744751
C         6.07068493672390    6.43949542993021    6.75685450701883
C         7.22005147254210    5.76282531670404    7.11477851476841
C         9.53166234986355    3.49675321427902    6.57428953303673
C         8.81887843193983    3.34617884342493    5.38877558879236
C         9.49585001582872    3.15103379648686    4.19885992504337
C        10.88057838954471    3.10639452557374    4.18368874913785
C        11.59308664125221    3.26342865869919    5.36148944771726
C        10.92154404647823    3.45977991046583    6.55409408216875
C         8.22532225545318    2.01279342757187    8.66198407817460
C         7.79627942530730    1.01951028752135    7.79227222929331
C         7.40806763621760   -0.20696782188433    8.29151513737008
C         7.44922977418614   -0.43239909556207    9.66370069139893
C         7.88429040804252    0.53825748837591   10.53608667311177
H         7.92666784749107    0.35454330447477   11.59995985650571
C         8.30822230709331    1.79346289362761   10.06051249229406
C        10.10818466423839    5.03044298090906   12.05793884173245
O        12.54040570453358    3.39852575346035    9.94119946024970
C        11.49745855632568    3.87361143659553   10.01211194450414
O        10.32320557952850    7.36457410392642    9.08670637520478
C        10.14103609686485    6.32175451650265    9.52920768624937
O         7.37961535260652    5.05532262921271   10.68037547015158
O        10.32261195776495    5.28324078506970   13.15180894220574
O         8.72328417656120    2.71041880239989   10.88135977578849
H         7.21450544805147    4.16076881081616   11.03348069931808
H         7.18585952226074    5.68765660409457   11.38014428636474
H         5.81955027869307    2.94017763819153    8.36267327741495
H         3.77280006818297    4.15670971875507    7.72636930197161
H         3.93055714855060    6.39089410760587    6.69574800315175
H         6.13964322332365    7.42113732844441    6.31157316898315
H         8.19446615185834    6.20752153755181    6.95663689270845
H         7.73801003985736    3.39262292652849    5.39598274490170
H         8.94041140169781    3.03403978541629    3.27958273157216
H        11.40397765872708    2.95451088280056    3.25138376685080
H        12.67239393417131    3.23671168469051    5.35038732437160
H        11.46560049660787    3.59746822387474    7.47979729420903
H         7.77173704785888    1.21454739780336    6.72802145263651
H         7.07532469285294   -0.98581617768700    7.62230059871782
H         7.13963938188795   -1.39169879115295   10.05409391100681

