60
CSD_code = SAWNIQ | q = 0 | S = 0 | Stoichiometry = C28H25NO4PRe | MND = 6
Re        6.28982853934641    5.54695059340791    5.97390796352744
P         6.13749780804627    3.70281038347118    4.36410195382279
O         8.44676532726661    5.21327582933023    5.29847738741502
C         5.13748443089471    2.21492952671418    4.65556913104486
C         4.69000815232655    1.93779930137616    5.94253713580349
H         4.89952820066096    2.63883147590987    6.74135815170211
C         3.96630688463692    0.78664419361108    6.19354185455097
H         3.61984260984137    0.57702606200659    7.19460099672497
C         3.68154709718401   -0.09130207258969    5.16061518508357
H         3.11557029886295   -0.99009274924858    5.35560198142393
C         4.11344004591468    0.18799953953922    3.87402948285490
H         3.88336607258899   -0.49187726167441    3.06646250287871
C         4.83707101568467    1.33769784071802    3.61717542432133
H         5.15929988011105    1.56133566543345    2.60897825759657
C         5.64456910313431    4.11932991014693    2.65773135969093
C         6.50582350012260    3.99669922959857    1.57509331351330
H         7.51709166534136    3.64464982086765    1.72946217276657
C         6.06428611635121    4.32395366556477    0.30299088379127
H         6.73385286627692    4.22205589799119   -0.53928549400158
C         4.77027157484889    4.77797956473504    0.11012059531207
H         4.42795135590883    5.02759817143306   -0.88381010193981
C         3.91351836695023    4.91707276271253    1.19303493394467
H         2.90602050975686    5.27735528762921    1.04257625355794
C         4.34913625587188    4.59340228549584    2.46366910393014
H         3.69442016362571    4.70334373130073    3.31950356782066
C         7.84650257485753    3.15380328383995    4.25258834360722
C         8.24432929529707    1.93495362046927    3.71363213360953
H         7.49554704856624    1.22619000958821    3.38352346810200
C         9.58554104484190    1.63409422687483    3.61370723207006
H         9.90279653453596    0.68720076928564    3.20380568739130
C        10.52822102956865    2.56320154272640    4.04890000761248
H        11.58048499666451    2.32987240793184    3.96314481183854
C        10.15097001918041    3.76336038989291    4.59867947408765
H        10.88525448397728    4.47296236470460    4.95069438947786
C         8.78646199324229    4.10061288139078    4.74766714686969
N         6.37051496732608    7.48351192780317    3.46773200012407
C         6.20439268777379    6.81424875472286    4.40029707922002
C         6.50860099404438    8.24789763304281    2.30474839444577
H         6.88368653787597    9.23550969591485    2.60430547377906
C         7.51743617236096    7.57496551833349    1.36865381796686
H         7.16895043425138    6.56426495716034    1.14502261298069
H         8.48416912669565    7.49641134931236    1.86998775011083
C         7.64615844154732    8.37500604053922    0.07684741418854
H         8.04377570270575    9.36809090245426    0.29870585059434
H         8.35048986740178    7.87436528151126   -0.58919471403179
C         6.28770454156826    8.51071110298772   -0.60409875604847
H         6.38964479905196    9.08941426306634   -1.52352872019666
H         5.91503918389099    7.51867651257886   -0.86836137427216
C         5.29212467720130    9.19202672535854    0.32963124718751
H         4.31876895654478    9.27536517579718   -0.15626422065730
H         5.63930801692516   10.20231382632222    0.55834982078375
C         5.14437510539653    8.39758027958730    1.62325546414492
H         4.44984014030548    8.89719616409499    2.30176360918522
H         4.74955047891594    7.40268342525087    1.40493603057506
C         6.84762051573537    4.23107875854174    7.31871128155537
O         7.34789507414980    3.47509876640627    8.00879141719771
C         4.40249417985682    5.65952541697359    6.45406757072303
O         3.27701633775953    5.67371604551692    6.69391035897976
C         6.85752709073176    7.01120685892618    7.14341558333257
O         7.24850910770429    7.84841446558823    7.81582831633200

