56
CSD_code = SAWNOW | q = 0 | S = 0 | Stoichiometry = C26H23NO4PRe | MND = 6
Re        2.60507680244559    1.80768427758565   10.17059979701580
O         2.88207831227440    3.24055127772489   11.92779111521701
P         3.46598360626486    3.85340141271659    9.12979411465157
C         3.60538699544166    4.29743403520439   11.79927726833574
C         3.97494368792559    5.05059969082806   12.93718868719023
C         4.77540581708337    6.16015418883469   12.82423456328910
C         5.25213819519642    6.58975393089997   11.58755546651207
C         4.89476390225824    5.89963044724838   10.44958757664890
C         4.06977057481272    4.78374260743179   10.54535091106104
C         4.79839562730003    3.87292661105922    7.89595491365490
C         5.61560085685496    2.75621016916148    7.76097434558102
C         6.66689859179101    2.76916655239435    6.86301647521219
C         6.90445056376244    3.89489809738949    6.09157638879807
C         6.08259815899087    5.00398612153197    6.21129382537982
C         5.02982623839053    4.99651912187616    7.10744152852240
C         2.22844887857807    4.92515226107960    8.32547087997854
C         1.56533119113962    4.40720534168706    7.21526720008098
C         0.61044409088351    5.16338700654861    6.56404849837307
C         0.30536253389631    6.43731229790723    7.02217477073016
C         0.95353450432227    6.94925164926417    8.13387819562087
C         1.91259782543910    6.19505779137470    8.79032950044204
N        -0.14268710036650    3.35953556484359   10.28914706158849
C         0.78845552883431    2.69430026124042   10.10516294161576
C        -1.29021618952177    4.12443629267023   10.57538650598737
C        -2.14946223484722    3.32399584877433   11.55801161906405
C        -2.03702401928519    4.37157470004475    9.26280645831035
H        -2.92616717261314    4.96602748575955    9.45471821843121
H        -2.33643361821293    3.42756403497740    8.81286249757897
H        -1.40172326082751    4.90526867245688    8.55893490405934
C        -0.82095826250392    5.44015957529880   11.20099860474107
H        -1.68096552195064    6.04228033254123   11.48176844222673
H        -0.21386024347220    5.99952168378046   10.49228835926277
H        -0.22330358119891    5.24343656423195   12.08854374715547
O         2.36258244617698    0.15293657032123    7.56000889706525
C         2.43676710802722    0.73311266579241    8.55095920980865
O         1.49037830947613   -0.34002587282401   12.10762250502875
C         1.89643647668763    0.42893254391075   11.36538957996350
O         5.48193634533539    1.14758368564376   11.08682923611714
C         4.44070688106472    1.31212151241166   10.65412694638860
H         3.62277092481383    4.71102676248637   13.90026536390444
H         5.05033624085095    6.70540131638523   13.71651264888193
H         5.89617347079373    7.45357087868161   11.52192540421627
H         5.25708069216500    6.21440057990868    9.47918266081472
H         5.41104116952034    1.87270829880198    8.35292395158734
H         7.29819065906469    1.89893754879299    6.76152650463614
H         7.72524725895100    3.90587522455845    5.38990332769159
H         6.26130308212520    5.87813866717960    5.60201559473870
H         4.37952017270427    5.85735249682855    7.18727507361118
H         1.80826521672571    3.40788743770349    6.87540544926487
H         0.09900051712898    4.76222421706207    5.70138000666104
H        -0.44154804846235    7.02931788191524    6.51361586713321
H         0.71243981370975    7.94015063679893    8.49194172274670
H         2.41920275025949    6.59065159881604    9.66082054126956
H        -2.44466368799627    2.37358773786423   11.11888821602594
H        -1.59286675031173    3.12437868781060   12.47081257602421
H        -3.04379232789342    3.88850301675036   11.80803333410030

