77
CSD_code = SAWPOW | q = 1 | S = 0 | Stoichiometry = C29H44N2PRu(1+) | MND = 8
Ru        2.51199702256296    3.38046511422607    1.57706727292310
P         2.76032489235916    5.66450544214790    1.16592008369474
N         0.92005655004886    3.54828949603489   -0.07202962633991
N         3.68765767725572    2.91826915028515    0.13872570090633
C         1.71417745403655    5.94937146652146   -0.38213375643219
H         0.80541620540978    6.46102687208753   -0.05062031929054
C         1.43760540533612    4.56635296743210   -0.92845878669799
C         1.85697963397845    4.46511610245850   -2.20208712409596
H         1.82070398756256    3.60386634670661   -2.84326326230357
C         2.38794040151460    5.74039602971284   -2.63524926066630
C         2.89218111673030    6.12950871214168   -3.86524526078088
H         2.94616091118827    5.42958575554637   -4.68514911456005
C         3.31116066324503    7.44069121697272   -4.02152573137384
H         3.70869641095509    7.76548216842200   -4.97059489044507
C         3.20991174907133    8.34548545810587   -2.97622710626840
H         3.52600416453520    9.36669642438969   -3.12302360238054
C         2.70162206111937    7.96100343175655   -1.74174615017194
H         2.61389516404425    8.68877670865484   -0.94990751949622
C         2.31041116220831    6.65016665745290   -1.56559472079377
C         4.41565487783996    2.37315977589332   -0.57494160659019
C         5.32460022399076    1.77366288462882   -1.50685475981888
H         5.08091225212939    0.72067001365740   -1.65161018418568
H         6.34596026556378    1.85191550729359   -1.13267612294236
H         5.26143309925413    2.29140427970056   -2.46484409991896
C         2.71984203380316    3.35980732845669    3.83762457366982
C         3.72095748793131    2.52913461842226    3.22811779067760
C         3.04391441351199    1.43321658055636    2.58497769924274
C         1.64971077910850    1.62518093866006    2.73897530021754
C         1.43452498733892    2.83424080799214    3.49956980244829
C         3.00168206531520    4.41206282521249    4.86361778188277
H         3.18610674987117    3.92131709589667    5.82122536485942
H         2.16279281180435    5.09110608641914    4.98887357248340
H         3.88668656980477    4.99213742253648    4.61101459557179
C         5.18882571477007    2.56463395800096    3.52726660442924
H         5.41465967086861    1.84682955771957    4.31794050363869
H         5.50020948864554    3.54874932734317    3.86852270000877
H         5.78146951211860    2.29825990077487    2.65329386141634
C         3.70458185294361    0.19889028099078    2.05397720624737
H         4.71896500402623    0.40514401633639    1.71969217104465
H         3.14448305152126   -0.23255823790043    1.22578669386832
H         3.75732397283893   -0.54743081548019    2.84878294375357
C         0.59640174453183    0.59709151916700    2.46807234796448
H         0.49505487991107   -0.03748168486869    3.35123739894684
H         0.86258848532200   -0.04676809110141    1.63165335006259
H        -0.37688806476190    1.04701834692018    2.27905284566532
C         0.14375022722955    3.13590408159705    4.20825663148905
H         0.19785093521410    4.07049311108704    4.75980813883495
H        -0.05776135102217    2.33797269431535    4.92540084101923
H        -0.70475329024195    3.18703520573402    3.52724412741216
C         4.41188383100370    6.42641560303491    0.75318795922847
H         4.21838270492673    7.42560537759919    0.35199728079711
C         5.26218282045130    6.51259663423194    2.01816821455221
H         4.87217166692255    7.23553897146043    2.72978498115395
H         6.27623836976400    6.81118951305793    1.76034282313374
H         5.30676993433373    5.53324971990037    2.49448199347243
C         5.15393905803580    5.61660993052930   -0.30434899636007
H         4.51026853435366    5.37750509807897   -1.14794898938323
H         5.52737051062045    4.69267908908198    0.13055675134730
H         6.00222137367295    6.18880611834456   -0.67461689281308
C         2.08872867541970    6.92002019801329    2.38208004890967
H         2.74124065788574    6.80251667336500    3.25462736362931
C         0.66948142388984    6.55507729717099    2.80907544101519
H         0.58718012417416    5.48222176360895    2.97613919669676
H        -0.05746110967222    6.86046060662639    2.05786590558211
H         0.41180484009063    7.06965992729312    3.73281506327751
C         2.13476187119834    8.37288130251506    1.92097209448078
H         3.14825619594627    8.71593702686097    1.73558641622778
H         1.71044045857138    9.00383856426159    2.70046276535373
H         1.54088844180017    8.51544543558018    1.02096363566433
C        -0.39975511465399    3.91934148705642    0.45567487085402
H        -0.76573924526748    3.12787359779278    1.10778202809269
H        -1.11639932863220    4.05163108429345   -0.36299166024986
H        -0.33818504259121    4.84163348373764    1.02527413866208
C         0.78210094763921    2.26803859882718   -0.77324975322332
H         1.74844917371702    1.94020641228377   -1.15406986141306
H         0.08227024460080    2.35809357258321   -1.61111123763139
H         0.39936489742338    1.51827205583077   -0.08381647992530

