103
CSD_code = SAWPAK | q = 0 | S = 0 | Stoichiometry = C42H52N6O2Zn | MND = 4
C        -4.03611925182064    2.88564877652205    5.63086370182935
H        -4.77836500772196    3.58635047099111    5.25170792373565
H        -4.46115004663942    2.26233315640242    6.41496752506214
H        -3.71699902458402    2.24951898968881    4.80859646130771
C        -2.81247958026757    3.67194846445014    6.13010567651622
C        -3.14219630865875    4.59609442550951    7.30086598708509
C        -4.41036697084351    4.76120275318101    7.83946819399819
H        -5.24389739230134    4.19129146028674    7.45970522159347
C        -4.62571607313646    5.65503064942761    8.87662021977548
H        -5.61879670580250    5.76570147104865    9.29079390188795
C        -3.58093289892308    6.40287928610277    9.38730663198684
H        -3.75257032440220    7.09817057939765   10.19654389275708
C        -2.31124757294258    6.24793355551708    8.85553244787879
H        -1.48593427923986    6.82341764951418    9.25117628328956
C        -2.09757251967110    5.35220108997174    7.82612629185081
H        -1.10818272068942    5.22380366272825    7.41195987024522
C        -1.78389735590381    2.64579383227244    6.60918491174297
C        -1.90187740050281    2.04788748765320    7.85780357586479
H        -2.71876541594092    2.32499882069211    8.50954182559788
C        -0.97794577872022    1.10685175013860    8.27451045960277
H        -1.07877919783566    0.64919274771442    9.24863124200714
C         0.07525956407296    0.75000902983272    7.44890848444548
H         0.79745163121777    0.01610060166557    7.77716884891794
C         0.19475886403874    1.33699374894655    6.20126479425806
H         1.01110361602043    1.05892568035345    5.54896545695257
C        -0.73064306837019    2.27716171265163    5.78491217946132
H        -0.65255538566427    2.73994199745840    4.81276176343403
C        -4.19369888818921    7.50455714215856    5.36209416361214
H        -3.44308609071720    7.02624950792343    5.99262970622453
H        -3.73407143537648    8.39886108946673    4.91728519288827
C        -5.40677463897821    7.90665372001916    6.18878140180677
H        -5.13904301228426    8.66271661581673    6.92629314159605
H        -5.79045074768563    7.02905229089646    6.71006388503061
C        -6.46413850457228    8.43510405324322    5.23327431396481
H        -7.39718432018419    8.64955219670606    5.76609204132548
H        -6.12035297207083    9.37060509456515    4.76526178481416
C        -7.97355820013505    7.56115826073078    3.49445455724525
H        -7.86476945379069    8.29091785151962    2.67714989624105
H        -8.73759331772671    7.93962966415435    4.18100777151125
C        -8.39050604798610    6.21017143061636    2.92960814946363
H        -9.30986900593192    6.30554664842863    2.35290225401107
H        -8.55789467004064    5.51237090603738    3.75097295956033
C        -7.24833537390515    5.70468690028846    2.05946446858560
H        -7.42846527299457    4.67786411983776    1.72902831333381
H        -7.16104573862815    6.33697471487511    1.16174624018268
C        -5.73947727565120    6.60191864781719    3.78960353320432
O        -2.28027448569977    4.44231249842553    5.10259127158563
N        -4.53920269991068    6.57304641292542    4.30664935398799
N        -6.73751562619781    7.42927880826533    4.23282206798866
N        -6.02761559822824    5.72263776490928    2.81921631377508
H        -5.22450887592933    5.15536760987628    2.48245808224494
Zn       -3.03666717658313    5.35896930759612    3.70506714145527
C        -2.03721450641182    2.88563947408480    1.77927826265418
H        -1.29496991624921    3.58634001037917    2.15843989614491
H        -1.61218034923310    2.26232715935963    0.99517385856360
H        -2.35633707909300    2.24950646570367    2.60154179893606
C        -3.26085374122529    3.67193944731452    1.28003422172053
C        -2.93113459967035    4.59608554629791    0.10927469805897
C        -1.66296225404206    4.76119618446365   -0.42932161367796
H        -0.82942889313815    4.19129772375163   -0.04954436955374
C        -1.44760988794922    5.65502756551868   -1.46646965144920
H        -0.45452398941828    5.76571147868355   -1.88062882541815
C        -2.49239069843368    6.40287899998807   -1.97715572390479
H        -2.32075079185966    7.09816997375690   -2.78639376916498
C        -3.76207731509099    6.24793240002929   -1.44538575931418
H        -4.58739431569526    6.82340100994636   -1.84104605196544
C        -3.97575622420611    5.35219444329414   -0.41598574993326
H        -4.96515176003857    5.22378202223345   -0.00183611323198
C        -4.28943929545275    2.64579073036185    0.80095054851662
C        -4.17146347465117    2.04789177884060   -0.44767171847376
H        -3.35456569874937    2.32499183639787   -1.09940247591406
C        -5.09539514075502    1.10685608895374   -0.86437970088721
H        -4.99455937996155    0.64919502300899   -1.83849864199286
C        -6.14859584918508    0.75000634758126   -0.03877389504961
H        -6.87079443208641    0.01610755233408   -0.36704066010594
C        -6.26809032076251    1.33698337152339    1.20887347933568
H        -7.08444495507185    1.05892749634175    1.86116551657034
C        -5.34268937686627    2.27715256033493    1.62522663909767
H        -5.42078120836087    2.73993707122883    2.59737413958065
C        -1.87964279958687    7.50455248573738    2.04803016078853
H        -2.63024954130975    7.02623885626192    1.41749226725776
H        -2.33927961928759    8.39885196487362    2.49283818164522
C        -0.66656810859628    7.90665967993369    1.22134670085771
H        -0.93430393049272    8.66271982489844    0.48383374115059
H        -0.28288212174174    7.02906167630315    0.70006567974658
C         0.39078747268432    8.43511909893947    2.17685779949464
H         1.32383279258065    8.64957714560188    1.64404345607377
H         0.04699114367545    9.37061603883193    2.64487060212547
C         1.90021471030722    7.56117720453221    3.91567408435316
H         1.79142461593634    8.29093295063228    4.73298206437670
H         2.66424635435912    7.93965499493878    3.22912054561040
C         2.31717037602822    6.21019024739302    4.48051433386559
H         3.23653403793201    6.30556736806464    5.05721861601257
H         2.48456044368910    5.51239348418665    3.65914670105189
C         1.17500365696637    5.70469696295560    5.35065781508615
H         1.35514079390122    4.67787562500332    5.68109441037795
H         1.08770874109100    6.33698409465909    6.24837576329620
C        -0.33386020486085    6.60192330622222    3.62052189927073
O        -3.79305914878991    4.44230273125267    2.30754911244738
N        -1.53413393128984    6.57304383946001    3.10347503439588
N         0.66417124837578    7.42929441841807    3.17730876672151
N        -0.04571533388907    5.72263915099256    4.59090452208134
H        -0.84882015939520    5.15536998095962    4.92766762403819

