76
CSD_code = SAWQAJ | q = 0 | S = 0 | Stoichiometry = C29H43N2PRu | MND = 8
Ru        3.54985578296891    7.39916123098954   11.51158464443625
P         3.66467578852970    6.32133592168693   13.57930469594770
N         5.76327875071190    7.07629260962984   11.53707195746505
N         3.92615020515796    9.01181898602966   12.39782718266212
C         7.54415715001228    6.91189606537723   13.33282301020891
H         8.41830792602326    7.17847582134364   12.76441398615157
C         6.24012232723813    6.83868687491741   12.89000377361939
C         5.38259755694926    6.43432082033389   13.94913935535246
C         6.20176985906719    6.28196137868445   15.10487376171353
C         5.94593287199347    5.96013535768621   16.43949267841284
H         4.93871170382883    5.76019663860108   16.77823346599224
C         6.98800461138664    5.90758437701095   17.33497473911968
H         6.79261475488609    5.65735007091743   18.36966463425057
C         8.30271461381461    6.17466679466953   16.93666826905072
H         9.09754227492848    6.11946703774261   17.66879453977343
C         8.58518128925229    6.51113794794894   15.63529695037745
H         9.60011762633614    6.72773199858638   15.32680341446328
C         7.54567122328619    6.57536752317492   14.70549057034735
C         4.06702103905207   10.10846748263301   12.74071022859295
C         4.28938567486491   11.43363576775602   13.25599161924158
H         3.45000532890770   12.08338420769569   13.00507500454025
H         5.20141629014715   11.85260281854884   12.82814753418837
H         4.39599443069975   11.38977064998851   14.34103410508904
C         1.66068452091243    6.50345287031204   10.62205052080353
C         2.73831748785391    6.22999692218951    9.72191842212035
C         3.22536888518419    7.49834154915414    9.23667264671814
C         2.48063093204027    8.52877135582010    9.85703113587257
C         1.52039786985618    7.92477171791149   10.74029237864045
C         0.66601530850587    5.50127292052647   11.12659204274452
H         0.27267985033830    5.78942187386243   12.09878039035437
H         1.10527633049919    4.51071828907434   11.21359651631120
H        -0.16935169397079    5.44378877709282   10.42452674056044
C         2.97170338231805    4.92585676349004    9.00797359572959
H         2.50187316537058    4.96824014115124    8.02192728888234
H         2.53326835984657    4.09169572077429    9.55042899741210
H         4.03100556429780    4.71704232155239    8.86237661434910
C         4.10215025833790    7.68078315818912    8.03356120467960
H         4.80058389281350    6.85561313523485    7.90673620095995
H         4.66560749444957    8.61223025516229    8.07893166447411
H         3.47381750487616    7.71975972950332    7.13999558745566
C         2.52094982801146    9.98260250572534    9.49015976209369
H         3.53398996118219   10.31025516009408    9.25993667143639
H         2.13467688583402   10.60129081484017   10.29772009897457
H         1.90227121151717   10.15385857776300    8.60594262157479
C         0.34758236960882    8.65382454455622   11.33104701501677
H        -0.31133517068829    8.99392541033133   10.52861837580629
H         0.66251209655329    9.52901650108289   11.89938096092390
H        -0.22798863283449    8.00602201619416   11.98734816734737
C         3.12987331380766    4.51266788096097   13.67621830475904
H         2.04524828906221    4.48847955052976   13.52286778621206
C         3.80693264936825    3.76423756048541   12.53558647706221
H         3.64980461223945    4.29417537937526   11.59673001287235
H         3.41073652053151    2.75341810715306   12.44036629701841
H         4.87592023407709    3.69595786290413   12.73361094280772
C         3.47679937709295    3.83673104449723   14.99779323793017
H         2.85879363238398    4.19389011511843   15.81758980266630
H         4.52319712482358    4.00945062573799   15.23938345032928
H         3.31789504827739    2.76185812649470   14.90908826409174
C         2.74657736718091    6.99192210944692   15.06772102031896
H         2.94596221317611    6.29291023605383   15.88486817886821
C         1.24759775370730    7.05619471104737   14.80086091071909
H         0.82900343600223    6.06470417254505   14.64235929293715
H         1.06622468907744    7.66196720221246   13.91441069078620
H         0.73023372361184    7.51158777629658   15.64471517495000
C         3.27879436018551    8.35973326381056   15.47665601137675
H         4.36737855508464    8.36197412665837   15.45149779807299
H         2.95251027024023    8.60384679989801   16.48694442128329
H         2.90649820987869    9.12565157523538   14.80051590863023
C         6.43114029500421    8.26174250326523   10.98643263123164
H         5.97937734783511    8.54053897487364   10.03311316451664
H         7.49513538543613    8.06480497743166   10.81971174610792
H         6.34525336679753    9.08941080121350   11.68903583531161
C         6.14111639977073    5.92588523106950   10.71022909657063
H         5.84981055850129    6.09082796221016    9.67293410656816
H         5.66099208440624    5.02880014037057   11.09202922323083
H         7.22667643968460    5.77452976957226   10.74616447052867

