22
CSD_code = SAWQAI | q = 0 | S = 0 | Stoichiometry = C5H12I2N2Pt | MND = 4
Pt        0.26102273354394    1.60434623287293    2.01553486869353
I        -0.77325754374802    0.41104780886705    4.03959389247553
I         2.68170552532595    0.85447915489935    2.38441668748476
N        -1.58505762781865    2.41612495856116    1.39145698638109
H        -2.40840098630136    2.19732107401228    1.95288626916361
N         0.56399616652504    2.78524442186237    0.21877137110444
C        -1.72826238347757    1.92135506852932    0.02636484316402
H        -2.53543455055196    2.45405687384513   -0.49834961504166
H        -1.98729357380546    0.85943894220414    0.05877006504699
C        -0.38001359962303    2.13455935397090   -0.69448477692059
H         0.04630170804596    1.17645347947599   -1.00500148734830
H        -0.51467508748777    2.75254310622875   -1.59590092781735
C         0.00714952778745    4.07810127502839    0.62629356904504
H        -0.14943351735769    4.71247771260334   -0.26001635795695
H         0.73261808593356    4.57855643613653    1.27334222610797
C        -1.32279714528333    3.85145108282759    1.37662617313420
H        -1.25287371218251    4.20896292345556    2.40798054072295
H        -2.14212171775142    4.39398674195372    0.88186531453823
C         1.86288445144361    2.95672294895955   -0.41521749805991
H         2.26832058612219    1.98517425383504   -0.69469848570441
H         2.55674624433764    3.41977792194437    0.28497000271972
H         1.78597641632497    3.58391822792567   -1.31170366093436

