44
CSD_code = SAWROY | q = 0 | S = 0 | Stoichiometry = C16H17BN8ORu | MND = 6
Ru        7.44799971057754    2.25900899970843    1.71117325083588
O         5.96847359405073   -0.24700660024209    1.01873606732643
N         8.48502934826617    3.98999832147390    2.12788209148578
N         9.60179750952973    4.28510921085680    1.46016459467424
N         9.34132810479199    1.35555367431268    1.70099969906871
N        10.34455335915254    1.96803969494755    1.06991609689853
N         7.79007066270579    2.70972151106434   -0.24529416839842
N         8.99132251227242    3.14760840914814   -0.63348354992377
N         7.21217745950464    1.99473047595877    3.58249117161446
N         5.74515874065638    3.37379470487977    1.68587610574508
C         8.24522911113693    4.97868411308958    2.97710051289531
H         7.37915565267582    4.96925623635599    3.61344155721988
C         9.24091991114883    5.94800580388686    2.85848700757699
H         9.32796241609080    6.86532084067513    3.40299161148474
C        10.08332583167799    5.46360969658883    1.87990031174624
H        10.97785714221994    5.87917135172809    1.46227312449224
C         9.81133775930662    0.22741055508026    2.21352804659014
H         9.17380830863165   -0.43861061190868    2.76539083017371
C        11.16612026040890    0.10217001997545    1.90654453235031
H        11.82678936465605   -0.69558132771300    2.17579089753051
C        11.46181625860317    1.23421668917302    1.17693055284087
H        12.38266106995404    1.55617382600710    0.73518550765927
C         7.00030166839439    2.68338443132692   -1.31019190806477
H         5.97521922649538    2.37017495834258   -1.23213105637708
C         7.71210638021286    3.11816611057353   -2.42791958995706
H         7.35651115780097    3.21135483465608   -3.43288396844580
C         8.97367403226347    3.40238640667408   -1.95026062156742
H         9.84438452312239    3.76572227386540   -2.45728704827350
C         6.53100010807824    0.71646483164335    1.28729490944953
C         7.02202062421341    1.98018281273784    4.71976478677724
C         6.76492361324175    1.93153030993592    6.13084054799340
H         6.17132611323310    2.79758975501817    6.42409564313958
H         7.70335177222265    1.93373887848238    6.68548828344487
H         6.20946393529467    1.02438914068625    6.36893490330620
C         5.60495832499477    4.58580364028074    1.09703691600084
H         6.39337114665219    5.02758108191691    0.50641352304714
C         4.35968169495625    5.10149876575773    1.37131624526157
H         3.96953078007115    6.04390902597323    1.03449873719672
C         3.70436422807356    4.15227252424196    2.17119390206894
H         2.70943599370755    4.22059519799416    2.57034483595666
C         4.58811438930709    3.11182948141559    2.33981097420364
H         4.45423350612166    2.18544926777729    2.87801406613595
B        10.12891384462137    3.32659591817706    0.38243863966070
H        11.11861884890477    3.72639475747822   -0.12283857284403

