30
CSD_code = SAWREN | q = 0 | S = 0 | Stoichiometry = C13H12CrO4 | MND = 9
Cr        2.03759145732671    2.57771898737174   -1.39655162090360
C         2.95035279410471   -3.00432480920541   -2.30854016599758
O         2.08917640648194   -1.92374578758239   -2.06002601482540
C         2.66514527336365   -0.64752270025602   -2.29751388061955
C         2.62855892361537   -0.21715340459145   -3.78067665139011
C         1.27214321534617    0.47977154763552   -3.96992843461732
C         0.97326950768964    1.01166660076196   -2.59976577489000
C         0.00011985352715    1.94467160107895   -2.20596380751959
C        -0.13854761898025    2.23480578917860   -0.84666194387938
C         0.65875914657555    1.57856849111794    0.11732253970739
C         1.61250195316565    0.63797842875720   -0.27166993739741
C         1.77635974028412    0.37921763939337   -1.64284718845211
C         3.84654910510893    2.50212350720147   -1.22434869175579
O         5.00159089961111    2.49635852086250   -1.16860954440234
C         2.53217623792011    3.57845977118530   -2.83212908565918
O         2.90837361015612    4.22145385994134   -3.71686016691714
C         2.25273585196806    4.17509681354190   -0.54059265907855
O         2.45129995318836    5.20078594074140   -0.04811371084834
H         3.85350618751741   -2.94089522027771   -1.68895470662840
H         3.25053558724132   -3.05862707302132   -3.36080770653667
H         2.39389704164479   -3.90254963978379   -2.04819985206019
H         3.69090975170137   -0.63388097030337   -1.89806722101723
H         3.43559541125531    0.49554820824092   -3.95544368534867
H         2.75408447696843   -1.06578448974421   -4.45028804935075
H         0.50209973756779   -0.24156706885949   -4.26116931436137
H         1.31353326703391    1.26279316921408   -4.72745643477501
H        -0.66907259395451    2.38407941997639   -2.93642252274204
H        -0.92117295659229    2.90756489338630   -0.51631996744225
H         0.47502154883603    1.76014331594319    1.16946538214095
H         2.17220623032736    0.07414465809503    0.46444081756756

