41
CSD_code = SAWXAP | q = 1 | S = 0 | Stoichiometry = C16H22CuN2(1+) | MND = 2
Cu        0.00000070604409    0.00000205579234   -0.00012807205185
N         1.11985339594916    1.63080287499904    0.17513738847118
C         0.63999518585496    2.83075361457685   -0.19415359161364
C        -0.68265531600040    2.87016606669484   -0.88490012474801
C         1.34208278107923    3.99877406856582    0.04904374298299
C         2.57769748680204    3.95902345409260    0.68397439173669
C         3.35447454372537    5.19310186709695    0.97692488752259
C         3.06437648953954    2.70278874299520    1.03454455414636
C         2.32486627309111    1.56509154221011    0.77027159703718
C         2.84720415769352    0.21554288247130    1.13693537950862
H        -0.77494849410687    3.76936952333800   -1.48729112982250
H        -0.79928135306646    1.99752112513059   -1.52556415263251
H        -1.48796197139424    2.87440594572635   -0.15026940374816
H         0.92204267302374    4.94187891254592   -0.26234126205625
H         2.91865395788534    6.06013724744426    0.48929734231389
H         3.36973670132129    5.37126096442677    2.05195399910791
H         4.38665628760687    5.08012120356873    0.65154485588044
H         4.02616837011893    2.61099306649585    1.51361753203465
H         2.54891091958123   -0.51912305933018    0.39059333348632
H         3.93096928009452    0.22979934242801    1.20958286545901
H         2.44972521912385   -0.08871560700114    2.10531664491563
N        -1.11990739378569   -1.63077547514155   -0.17515407813426
C        -0.64014073673261   -2.83066644300702    0.19443309807537
C        -2.32480415963654   -1.56514466371811   -0.77054365404035
C         0.68236267898800   -2.86998894965952    0.88546612531541
C        -1.34217064268121   -3.99872410967401   -0.04876392663028
C        -3.06426736861191   -2.70287548110363   -1.03478888190500
C        -2.84700729626200   -0.21564304014235   -1.13754089199590
H         0.77448288696358   -3.76906960065385    1.48806294031470
H         0.79887859945730   -1.99722546355836    1.52598719150253
H         1.48783559174596   -2.87441332778287    0.15102048575093
C        -2.57764428176972   -3.95906499473466   -0.68397007567440
H        -0.92221290195228   -4.94177860650122    0.26288188671419
H        -4.02597759056448   -2.61115602454110   -1.51403877666752
H        -2.54942069612813    0.51900111146030   -0.39092279759282
H        -3.93068852223069   -0.22999108522693   -1.21106122955102
H        -2.44881033371616    0.08878168612655   -2.10555317137259
C        -3.35437480827690   -5.19317990551878   -0.97689541610288
H        -2.91857141092468   -6.06017564028041   -0.48917849206617
H        -3.36953644138050   -5.37139392338570   -2.05191699705048
H        -4.38659246646825   -5.08021189722470   -0.65161411681936

