131
CSD_code = SAWXAR | q = 0 | S = 0 | Stoichiometry = C50H62ClMnN16O | MND = 6
Cl       11.47319553284035    5.49617078053200    7.48654502061451
Mn       11.05315063098533    5.34513404126730    9.61978061490962
N        14.11261660185885    4.15852247533701   10.20586594120926
N        12.14680533272298    8.43815927668564   10.19328030167517
N         7.98667542975771    6.52282301406879    9.12124734934441
N         9.92171643999922    2.23666044319696    9.26350081844733
N        11.82070004815867    3.58523055246874    9.73202681882985
C        11.20160723821079    2.39664172117148    9.50894789857810
C        12.15753010262946    1.28914254829546    9.60377534638057
C        13.37104488925066    1.89542492074604    9.88585548108523
C        13.14292226676529    3.30272848118254    9.95346357694550
N        11.85841042393447   -0.02462197845958    9.51160201252569
C        10.64494382656668   -0.51628144752023    8.90740015929701
H         9.93507828849413    0.29676751075310    8.78957819984575
H        10.20369833008217   -1.28464270779757    9.54555069193105
H        10.85839453984849   -0.95961348028785    7.92972641939083
C        12.87349494045453   -1.02603584886044    9.73097210925871
H        13.45737948711140   -1.22464636977558    8.82611508547263
H        12.38571763327379   -1.95293038692502   10.03334545941653
H        13.55586588773970   -0.71858616584783   10.51884643103253
N        14.65619590142129    1.35252270242240   10.02204237145427
C        15.31851544600124    1.16842532487807   11.20742386416263
C        16.57049386693285    0.69877187549141   10.91721616018816
H        17.33016061330892    0.44226501147800   11.62971171757841
C        16.67794843472048    0.61624673912407    9.51219935910929
H        17.53647068313311    0.28876557857265    8.95925667817555
C        15.48841338393821    1.03461180317213    8.98068863486047
C        14.67054001129464    1.48387735916162   12.50972061920043
H        15.31114880983463    1.16389622033178   13.32699205290782
H        13.70486295638636    0.98360680655419   12.60147256436665
H        14.50086806850324    2.55792940060598   12.59562464087072
C        15.05673235609725    1.20466373973008    7.56742222880801
H        14.21405069051158    0.55659411340808    7.32333006298070
H        15.88130189499565    0.96788138643799    6.90085230473772
H        14.74164384994376    2.23337388366785    7.38868648113785
N        12.75028857842477    6.10460942747446   10.10130262443551
C        13.93593924090823    5.45937336540088   10.27064249558489
C        15.00047473618656    6.40946078019843   10.59777843825473
C        14.37444743918484    7.64561607996185   10.61556554969486
C        12.99973406291470    7.43796304963595   10.29197048699684
N        16.28035253537393    6.09135934067049   10.89536972976344
C        16.88248749515457    4.83505163056217   10.52032237622500
H        17.44493157743457    4.43375194231164   11.36585243390410
H        17.57178882344149    4.97691521390020    9.68205828447744
H        16.11121085413895    4.12478464790952   10.23832658756425
C        17.22032209499594    7.11907686593056   11.27281292298194
H        16.74592688193346    7.86327599983728   11.90684225844027
H        17.64525265764328    7.62777878131938   10.40094382961189
H        18.03478049911388    6.65474580858096   11.82887756370250
N        14.88639704005734    8.93165642476447   10.83680838088733
C        14.77667650712458    9.63159441440311   12.01025142650704
C        15.31184134732272   10.87424742419604   11.80659609169692
H        15.38990730657211   11.65644474238872   12.53633044429803
C        15.73904422962867   10.93679205805231   10.46276347395218
H        16.19938883782063   11.77750855204962    9.98189009665736
C        15.45610756934041    9.73068371502701    9.88133700538734
C        14.14592853174962    9.02273458258223   13.21373892763969
H        14.23706613955248    9.69904250536009   14.05924705029558
H        14.61789263774642    8.07226400908035   13.46967637872435
H        13.08684221386972    8.83250136922635   13.03016707312758
C        15.64043813599044    9.25135865601841    8.48569358812434
H        16.04997312660107   10.05004743276199    7.87363694965567
H        14.68500145829580    8.93646408051600    8.06465892875308
H        16.31639148790597    8.39636898695027    8.44186631224476
N        10.26109778785218    7.09875343018324    9.66265144518546
C        10.88177729468072    8.29093646678549    9.86973448714946
C         9.94051176719254    9.40255965263472    9.70127948474669
C         8.73156682718508    8.79161174426984    9.40402181704819
C         8.95382910152102    7.38177147589736    9.37657068004672
N        10.22695538390833   10.71789170594958    9.84015050691221
C        11.55934708451285   11.21138348574800   10.09005175960347
H        12.19480848661117   10.41328898371044   10.45913911556641
H        11.50840314670380   12.01476459987969   10.82798169236411
H        12.00148996806064   11.61419146941338    9.17346566365920
C         9.32945915961997   11.73419639838247    9.34462392421787
H         8.30338249319301   11.38531495582617    9.32526264402861
H         9.61263620879085   12.04241829533021    8.33171466632331
H         9.39204350579944   12.60840557466922    9.99521162779716
N         7.45699108270809    9.32724186129799    9.17255624105749
C         6.58730199550507    9.75000322501862   10.14801130253859
C         5.40949330227538   10.08516348820574    9.53870136958632
H         4.53152440833744   10.46221298553652   10.02595549681966
C         5.56225779948832    9.84443654861135    8.15578265991865
H         4.82138503602102   10.00735039245037    7.39787859253542
C         6.82800792482862    9.36460735586775    7.95518244279659
C         6.98515680818138    9.76810598569640   11.58212100075730
H         7.25634759652912    8.76428125978196   11.91346048641317
H         6.15547422860519   10.12331475526939   12.18698651808654
H         7.84456171329084   10.41912747719907   11.74856535096469
C         7.52885567801949    8.95042828474487    6.71130504223240
H         6.86296305010173    9.06109899918766    5.86013877967700
H         7.85000630361707    7.91111550911496    6.77785284643084
H         8.41743000018828    9.56055962662477    6.54372565250933
N         9.32721362658071    4.57123593604906    9.31191168882125
C         8.15481200462056    5.22118856314186    9.08987270711160
C         7.07822231190635    4.26550200957588    8.80242041478203
C         7.68654554704092    3.02250464614381    8.87794545511606
C         9.06609269878897    3.23519642472447    9.17324706829977
N         5.78348261719360    4.56830462096267    8.56437255850932
C         4.85160102088429    3.53490338979341    8.17944135617001
H         4.93298286160676    3.29546981832935    7.11352125964431
H         3.83983692345258    3.88916126650505    8.37485297462439
H         5.01754090845833    2.62491007064919    8.74861758032551
C         5.32426607347981    5.90966488221888    8.29907492842866
H         6.07032661935843    6.62851748447548    8.62316391017376
H         4.39227388443202    6.08519717315481    8.83975878126353
H         5.13509005573201    6.04749128978550    7.22993536113166
N         7.17829907428422    1.72804582879479    8.69681394970539
C         6.67171617043596    0.93268180008488    9.69269301108836
C         6.39013907935832   -0.28980680540875    9.14653549669989
H         5.96928405727839   -1.13063467118447    9.66275764797369
C         6.75604639501779   -0.24104244494426    7.78407241845762
H         6.66463821004338   -1.03894057597696    7.07341991463448
C         7.25200282461964    1.00947896267799    7.53300068445460
C         6.52940420756874    1.43921255543261   11.08518128665930
H         6.11045047505728    0.66152622336840   11.71784935034819
H         5.87817643981491    2.31408128580803   11.12698840354513
H         7.50285294256104    1.73064136096384   11.48271521164339
C         7.80525372001266    1.61114216234295    6.29083786221817
H         7.20506983041611    2.46089683979109    5.96230859735028
H         7.82141732685153    0.86902863516954    5.49765743038508
H         8.82038017076803    1.97122549887809    6.46021128715902
O        10.52991528705561    5.26844393697181   11.87865078683806
H        10.49089349857124    6.15196487954964   12.27322316171311
C        10.99833175048415    4.36581325568880   12.87431847343505
H        11.09337639409092    3.39706753529406   12.37794925004825
H        10.23476755084358    4.28649607083405   13.66083309331983
C        12.33034647006774    4.79895522832455   13.46808051362801
H        13.08203919576540    4.87977649722711   12.68508565170111
H        12.66452198925241    4.06748200943227   14.19850613233291
H        12.23549575876848    5.76552914973474   13.96209785696393

