72
CSD_code = SAWZUO | q = 0 | S = 0 | Stoichiometry = C22H43ClFeNOP3 | MND = 6
Fe        8.29282171823592    5.22671452551478   12.60815627757399
Cl        7.66672541863690    4.12249438267245   10.84143192402034
P        10.00797558323791    6.21979722271492   11.56853966384474
P         7.29897380382263    3.49126222615574   13.63366411486637
P         6.58624360131428    6.54358691915481   12.15796426705726
O         8.99263005419839    6.73896586718547   14.95445688952863
N         9.83168345008263    3.98709338886064   12.86695163304223
C        11.14438113827437    4.34119736124206   12.90561213847665
C         9.74588083827786    2.65096315402765   13.07781384381349
C        11.01195987571698    2.13634159956152   13.24554072934475
H        11.26797080393471    1.10876492307299   13.42447741413752
C        11.90867199952551    3.21889715646740   13.12634393028351
H        12.97941682567754    3.17611013391572   13.20218799096050
C        11.42856161070713    5.78276500846298   12.65335760953084
H        12.39636675589929    5.95611765230450   12.18068096257207
H        11.37389184396202    6.37278621922704   13.57547978990897
C         8.37579244823956    2.07481055730310   13.14148703287208
H         8.29678959859920    1.24944305402222   13.85462087808596
H         8.04573589790048    1.73308641045156   12.15366910549466
C        10.44921625372325    5.37394095270135    9.96436054244862
H        10.02446426072544    4.37174501940044   10.10546837616960
C        11.93144082448632    5.18162471936207    9.65878019520991
H        12.48173185506405    6.11674020165391    9.60684284749945
H        12.02067979545999    4.68680439519820    8.69214115327018
H        12.39395562884808    4.53719295303355   10.40257598207685
C         9.69163823030394    6.02991374500044    8.81300303525770
H         8.63267869709795    6.09217518780622    9.05982799030262
H         9.78763605553533    5.42430711830165    7.91354829488459
H        10.06734547002144    7.02754247635807    8.59370931329665
C        10.24148840962472    8.06091346107010   11.29007792455760
H         9.49241101993643    8.35203723732985   10.54506908781044
C        11.61568560691875    8.47185759841590   10.76839002655362
H        12.40896088061340    8.12175814024875   11.42432718525886
H        11.67084983329055    9.56006618824569   10.72994322773332
H        11.79334961920995    8.09674290230450    9.76467043917002
C         9.94709215403626    8.79432568526894   12.59677482972978
H         9.01911780520430    8.44010722381949   13.04221827154020
H         9.86201856003886    9.86680782199302   12.42244607551580
H        10.74831250208701    8.63409938714610   13.31512498415960
C         5.61887954198373    2.76685800560115   13.21142352546354
H         5.56924826020189    2.89514543964547   12.12156205691386
C         5.48708958140617    1.27428782732695   13.51199443160880
H         6.15646191613416    0.67512718510122   12.90265337993201
H         4.46735447733263    0.96136734972110   13.28946371330492
H         5.67854848621946    1.05845831839139   14.56149816479388
C         4.45521910310571    3.51234647479742   13.86262439545512
H         4.32188012594886    3.18073702340806   14.89054668175634
H         3.52901657548598    3.30384619993548   13.32676205311235
H         4.61781258847033    4.58842358885911   13.86050564236989
C         7.38708317694973    3.37774320699582   15.49883130882347
H         6.89564154981281    2.43589054696275   15.77909654269117
C         8.84153875550130    3.33322542934046   15.95943525880800
H         9.35856733417233    2.44922674158795   15.59731768863600
H         8.88437158882577    3.33142412431215   17.04810766632186
H         9.38165714845887    4.20587948286886   15.59957894521970
C         6.67633472767350    4.53885241825891   16.18981448890797
H         7.09585289147572    5.48545845939539   15.86254170866161
H         6.81531333605081    4.46430227234912   17.26794053646320
H         5.60917472752454    4.54694362467473   15.99154925111222
C         6.80151861091580    8.01033180932892   11.07120968248197
H         7.43680233912988    8.75471875875789   11.54199330277451
H         5.82286640046702    8.44786229935090   10.87004784733165
H         7.24874080202980    7.68962273518099   10.13150708065239
C         5.79557790799425    7.37771532872696   13.59251236487871
H         5.44120806389582    6.63642896561093   14.30554917911347
H         4.96388720934393    8.00204162585982   13.26687615817291
H         6.53839061962428    7.99862442517036   14.09105136815455
C         5.13132801374162    5.86695774417135   11.27114966349485
H         5.42316351868825    5.70343602718887   10.23472863078766
H         4.31003946475451    6.58275085450101   11.31934785624876
H         4.81927466885178    4.91581237953095   11.68631568415956
C         8.70800975935487    6.10835315011232   14.03202776353021

