43
CSD_code = SAWZAR | q = 0 | S = 0 | Stoichiometry = C8H24Br2O4OsS4 | MND = 6
Os       -0.00025661872535    0.00011134465767    5.56298021225871
Br        0.00011265859455   -0.00010110582360    3.14808811112176
S        -2.24803861268116    0.45033278053394    5.56298569782284
O        -2.85907413593515   -0.88541688470637    5.56299164028003
C        -3.04559060509113    1.33953289230929    4.19245475274780
H        -4.11681677221651    1.25323860690580    4.32721150055668
H        -2.71279185439554    2.36866557718195    4.23205269472718
H        -2.74502190858341    0.87454958420778    3.25978975970607
Br        0.00014303320255   -0.00008735689900    7.97799109919302
S         2.24792331885185   -0.45031707258578    5.56299132882093
S        -0.45028795117300   -2.24798999445641    5.56298665165337
S         0.45036272329565    2.24796521673858    5.56299193229132
C        -3.04557036471937    1.33952057802338    6.93353921989058
O         2.85903564829644    0.88538705570890    5.56299619919733
C         3.04550564944291   -1.33951942662047    6.93352010487000
C         3.04552174884425   -1.33953038097192    4.19248091843158
O         0.88542948676694   -2.85907914435108    5.56299214948749
C        -1.33949970387877   -3.04554843301767    4.19245772410348
C        -1.33948641817953   -3.04552951688007    6.93353767850846
O        -0.88538062304008    2.85901397555610    5.56299614971217
C         1.33955134613925    3.04554743157776    6.93352215219322
C         1.33956169027721    3.04556234200735    4.19247912104003
H        -4.11679753160575    1.25322312980639    6.79879738570837
H        -2.71277698868114    2.36865488538378    6.89394397337899
H        -2.74498898585930    0.87453342602172    7.86619869089579
H         4.11673344869382   -1.25317582972688    6.79876853525670
H         2.71275365511505   -2.36866747064088    6.89389678319798
H         2.74491866215403   -0.87457764857849    7.86620170577664
H         4.11674896861961   -1.25319071140755    4.32724415078570
H         2.71276417354822   -2.36867680031037    4.23210645996852
H         2.74494565907133   -0.87459144634067    3.25979476900984
H        -1.25318522482876   -4.11677629109630    4.32719659474304
H        -2.36863799500884   -2.71276955628326    4.23207732513400
H        -0.87454051494109   -2.74496102916831    3.25978532483770
H        -1.25316786040256   -4.11675820580287    6.79881278798356
H        -2.36862659784889   -2.71275679647024    6.89392144224170
H        -0.87452306455753   -2.74492957372102    7.86620446913788
H         1.25322323801498    4.11677461895686    6.79875279791802
H         2.36869584317533    2.71277950292468    6.89391975909634
H         0.87458726243449    2.74497702316321    7.86619670599405
H         1.25323681991315    4.11678888296321    4.32725965507388
H         2.36870482918279    2.71278959910795    4.23208378141403
H         0.87460046871856    2.74500222212279    3.25980010383312

