25
CSD_code = SAXCUQ | q = 0 | S = 0 | Stoichiometry = C9H10Cl3NbO2 | MND = 10
Nb        2.33609969896781    3.80236106638358    2.86610788193318
Cl        3.28655855332091    2.06502158566499    1.54910724138154
O         4.19705300066788    3.42133578061393    4.04037381841544
C         1.79754576539977    5.42105911923111    0.97502074398740
H         0.98351884783554    5.30079642712945    0.27202360973039
Cl        1.61374764470202    4.54646785036656    5.01358130130978
O         2.57895926153084    1.99638190626393    4.27987951983164
C         3.14222872901046    5.05429364824041    0.75335367689859
H         3.52864094621686    4.57401763407020   -0.13402920510300
Cl        0.24726531878545    2.99928669315747    2.44073201268254
C         3.91234282718451    5.51865287342063    1.84312886558460
H         4.99012592185549    5.47726732388703    1.91967182495260
C         3.04601226007169    6.19772033060132    2.73147536108875
H         3.34744402250441    6.77106018477501    3.59776671682089
C         1.73538116132389    6.13235978016442    2.20052875383590
H         0.87113056224414    6.65791150993780    2.58514181404032
C         3.74398489519370    2.36642185154806    4.57418097387174
C         4.54832537931984    1.58181428867529    5.51440882814824
H         4.06301859157274    0.70690591527826    5.92156985937486
C         5.79435988089174    1.93296073640087    5.83223525053127
H         6.20286726457530    2.82497049541003    5.37511637030520
C         6.65960681051714    1.17494526120243    6.77522168094576
H         7.63169413584211    1.64518428488001    6.88646048602562
H         6.79994325318784    0.15527150568012    6.41895560923019
H         6.18424526727793    1.11123194701723    7.75308700417723

