32
CSD_code = SAXDAW | q = 0 | S = 0 | Stoichiometry = C13H14N4Ni | MND = 4
Ni        3.45099641724281    0.18956495892233    0.68699825685059
N         3.13555013458355   -1.59298094164335    1.20039021006450
C         3.56947621935747   -2.56691518395359    2.00419507848901
C         2.80448037342312   -3.72348171756057    1.83962761354684
C         1.85056180240011   -3.44345221217581    0.87679087807337
C         2.07539938660156   -2.11809243416277    0.48390623578334
C         1.53256206021342   -1.27447267188142   -0.49526583337808
N         2.08168304723947   -0.10540870062732   -0.64214538247145
C         1.59350821307970    0.76518623172548   -1.68683410916956
C         1.74628100903089    2.23873419340535   -1.31307299501805
C         3.21973439794797    2.61161673669638   -1.14906198698035
N         3.79359047297921    1.95371284891049    0.00061588622276
C         4.69142442237116    2.57491724472744    0.70502349217103
C         5.20291258748653    1.89960681683279    1.82207819799723
C         6.09519635721262    2.22800318201138    2.85014372713547
C         6.10194771599365    1.14405137681076    3.71070975704440
C         5.22292097288515    0.19725109424239    3.18098264842646
N         4.68296715717451    0.63662267368392    2.04138441826430
H         4.41203706580703   -2.45137826824915    2.65970664356146
H         2.94450134860319   -4.64841745165063    2.36498387564934
H         1.09271068485930   -4.09822670394588    0.49185741486121
H         0.70425940148338   -1.59440882417896   -1.12558653782122
H         2.16510668708987    0.57226808486738   -2.60635477304107
H         0.53677405422226    0.54643953384389   -1.89279418294296
H         1.29963790152862    2.85604336456559   -2.09389393673853
H         1.22195340041510    2.43010606099629   -0.37356029488190
H         3.76769730982182    2.30728873763632   -2.05218926906821
H         3.31583205781344    3.70086365412336   -1.04327236649550
H         5.01615033158557    3.58224975994573    0.44929592315497
H         6.64808504275632    3.14303843484146    2.94047365543870
H         6.66685728689459    1.03793614739500    4.61663162849510
H         4.97690467989634   -0.75256602615432    3.61693612677703

