57
CSD_code = SAXLIM | q = 0 | S = 0 | Stoichiometry = C16H26B10N2O2Ru | MND = 8
Ru       -0.38530159555821    6.96463874270647    4.24885223259499
N         0.42812721696787    6.97598309591113    2.42894904591791
N        -0.06784922058680    8.92988437551152    4.04368266239739
C         0.72278804956089    5.94041604149531    1.64370710909356
C         1.30372982583065    6.08280611346768    0.39052263651461
C         1.61200572837464    7.33992680423256   -0.10217046881568
C         1.62377159269416    9.80309150916294    0.34686718040314
C         1.35500086859397   10.83209589695637    1.19164832165585
C         0.50084849049037   11.62025099764853    3.40820818529042
C        -0.03538554866847   11.25133546856138    4.63116421125428
C        -0.29769067098926    9.91802250169655    4.91169414418977
C         1.33995175671086    8.45398487373716    0.70247731427501
C         0.77972158816294   10.61252650554067    2.47571397321837
C         0.74805781600725    8.21654903876785    1.96195933064298
C         0.47484935789552    9.28397945716240    2.84151797608009
B         0.05363582942622    5.67335744065362    5.76967446911671
B        -2.36825869621440    7.00217168200177    3.75526094766281
B        -1.16389337459677    6.63026994269229    6.56015218845669
B        -2.35858871293965    7.24905200514554    5.55409923763231
B        -1.92579988718249    5.24004448391872    3.72532513559367
B        -0.71597565433198    4.57838170580489    4.69238579328078
B        -1.20342492377250    4.78037212570028    6.47941199695772
B        -3.27103551531404    5.89728315261290    4.74968300939321
B        -2.69456627632706    5.72808957201656    6.42008307730415
B        -2.40536500762290    4.42268620997587    5.23678336950421
O         1.39929676837794    5.99042367812888    5.64725124895091
O        -2.75712056266274    7.81006161882602    2.74143504417457
C         2.11047665622762    6.77468771173472    6.58458647932536
H         3.07030248505967    7.03211117491256    6.12029065598443
H         1.56187037215344    7.70502133863906    6.79691301535395
C         2.34146742259997    6.00524429007944    7.88037504948520
H         2.93415230853838    6.60301068242375    8.56811287853020
H         2.86810861371861    5.07653553790104    7.67350633641305
H         1.38669108135380    5.76816873275115    8.34347353383076
C        -4.06957640160624    7.98052366387557    2.24972219577149
C        -4.88863673434847    8.90755061478798    3.14188010165147
H         0.48064507341994    4.96163583782336    2.03385866585373
H         1.50946027615239    5.20114929338764   -0.19631769941377
H         2.05679934800478    7.46711810274696   -1.07708693885670
H         2.06697974632953    9.98946176545257   -0.62078341035396
H         1.58076800368947   11.84932537512378    0.90581100024483
H         0.70623226378086   12.65325531399163    3.17372965218247
H        -0.25600482444704   11.99833774382662    5.37799347113389
H        -0.71767628372994    9.62863990488912    5.86536307810438
H        -0.81690524160816    7.23291316864619    7.52523732441021
H        -2.82981147149181    8.31628120591698    5.76362331680941
H        -2.07439083354272    4.87507770334164    2.60811665422008
H        -0.04314465772544    3.68311651135705    4.30118987703563
H        -0.91643810926940    4.04578905993471    7.35712053919665
H        -4.42797526300371    5.86942277147392    4.50577274388769
H        -3.48031626696417    5.67978765319419    7.29878938889600
H        -2.98053408918689    3.39300798592321    5.21876080462060
H        -4.56423395518531    7.00396292403988    2.17441051602882
H        -3.97514942003169    8.40891826748977    1.24512496915177
H        -4.99169663735662    8.47011896326842    4.13106422207521
H        -5.87543190803325    9.05927495902242    2.71239273827374
H        -4.39006079582335    9.86936670201762    3.23562946741459

