97
CSD_code = SAXPIR | q = 0 | S = 0 | Stoichiometry = C48H44NiP4 | MND = 4
Ni        9.48850741884895   14.23274994543227    1.40624024022613
P        11.29298346037068   14.12949138090483    0.15214772927873
C        11.81854174260595   15.49925004576907   -0.92674521252553
C        12.95509262289397   15.40289473584739   -1.72462065760857
H        13.54640970509480   14.49720659869870   -1.70404377462230
C        13.31652171730243   16.45669323506274   -2.54123221578910
H        14.19767817286059   16.37979506921812   -3.16236943142403
C        12.55148158621336   17.61391284784887   -2.56626351473820
H        12.83792407902133   18.43396172042994   -3.20886092093988
C        11.42616875573752   17.71871118063698   -1.76761036810305
H        10.82873887748344   18.61877698974322   -1.78282476997443
C        11.06302216847719   16.66360538374103   -0.94941375140284
H        10.18470708082361   16.73193135404252   -0.31997741907399
C        11.29291092572358   12.73169565164243   -1.01368497702089
C        11.56257853693421   11.45934497178555   -0.51632919597302
H        11.83979191214131   11.34824417195002    0.52596183359916
C        11.46314388756426   10.35435957828292   -1.33948663787622
H        11.67924412364697    9.36954925000622   -0.94961280069055
C        11.08235757747642   10.50869731350350   -2.66358566577754
H        11.00299260814186    9.64482237866160   -3.30765776256248
C        10.79803191225668   11.77039620283653   -3.15889206119990
H        10.49319883239679   11.88961312705201   -4.18897022699100
C        10.89846520074102   12.87883578660063   -2.33795565273317
H        10.67293543546279   13.86537506403302   -2.72001293869566
H        12.56859137725875   13.85318382605175    0.66072672992667
P         9.59160486086451   16.03723056625639    2.66033507259230
P         9.38540152324333   12.42828084097430    2.66034948059419
P         7.68403862635983   14.33599942857182    0.15213668269011
C         8.22181887336066   16.56272681327550    3.73923766484538
C        10.75518685018723   11.90278580793476    3.73925390993992
C         7.15846898059866   12.96624407795859   -0.92675545241053
C         8.31817387845302   17.69928431807896    4.53710239775310
C        10.65883622132800   10.76622111504779    4.53710891716413
C         6.02191059121493   13.06260738822964   -1.72462039560293
H         9.22387384798711   18.29057945580723    4.51654218957474
H         9.75313982379005   10.17492100509209    4.51654121578821
H         5.43059598760685   13.96829644040948   -1.70403132872516
C         7.26438351162151   18.06072054661734    5.35371881084259
C        11.71262809328660   10.40478158127884    5.35372179993017
C         5.66046728065200   12.00881289610077   -2.54123080081725
H         7.34129994852885   18.94186048549635    5.97487944876732
H        11.63571566020578    9.52363486558319    5.97487337200127
H         4.77930122828285   12.08571430182522   -3.16235271680830
C         6.10715379237626   17.29568833142557    5.37874824805557
C        12.86985466688498   11.16981853068759    5.37875862097354
C         6.42550133911225   10.85158906515840   -2.56627203148631
H         5.28710666268254   17.58213911150455    6.02134733167528
H        13.68990196449123   10.88336650476182    6.02135710547831
H         6.13904736726699   10.03154273249229   -3.20886761073877
C         6.00234690609619   16.17037677696941    4.58009242970480
C        12.97465718342461   12.29513759205054    4.58011272841907
C         7.55082174855788   10.74678278799596   -1.76762938296889
H         5.10228252617149   15.57295593781887    4.59531877486464
H        13.87471816956947   12.89256329700551    4.59534626397926
H         8.14824911096354    9.84671593115490   -1.78285591095153
C         7.05745630122802   15.80721112314830    3.76190761990574
C        11.91954689840013   12.65830556749085    3.76193019191936
C         7.91398212271737   11.80188442108083   -0.94943314200603
H         6.98912188507001   14.92889062456547    3.13248333723443
H        11.98787946039661   13.53663024612654    3.13251152896949
H         8.79230472946690   11.73355354054712   -0.32000910645801
C        10.98937493904431   16.03724477474479    3.82619038189268
C         7.98762691327299   12.42826288853945    3.82619985316944
C         7.68410073640196   15.73379771618326   -1.01369322783162
C        12.26170607484601   16.30703515774021    3.32884851028710
C         6.71529936035247   12.15847161197781    3.32884932390329
C         7.41442801572356   17.00614528105530   -0.51633248263894
H        12.37280017084888   16.58414246113989    2.28653322254937
H         6.60421209328348   11.88137305915439    2.28653090252645
H         7.13721889995403   17.11724111247160    0.52596031994780
C        13.36669780753277   16.20762655232613    4.15199952974589
C         5.61030323400769   12.25786521222451    4.15199598909230
C         7.51384837297456   18.11113335031997   -1.33948789489319
H        14.35149993359010   16.42373766537620    3.76211602204002
H         4.62550408436601   12.04175373745234    3.76210529335059
H         7.29774040524924   19.09594077806534   -0.94961093352011
C        13.21238428302362   15.82675037093656    5.47607860886936
C         5.76460853938167   12.63872813127756    5.47607986097261
C         7.89462553420591   17.95680140411584   -2.66359018103438
H        14.07625620973924   15.74748548508236    6.12016607791377
H         4.90073299957046   12.71798274589951    6.12016374266886
H         7.97397785121876   18.82067829325291   -3.30766120204402
C        11.95070240111336   15.54233294966998    5.97137700971739
C         7.02628653699258   12.92314753889509    5.97138689472170
C         8.17895753655598   16.69510589000516   -3.15890134697935
H        11.83149139964288   15.23757736516906    7.00147518688231
H         7.14549092055876   13.22789321312822    7.00148879693053
H         8.48378582747852   16.57589403151047   -4.18898156842978
C        10.84225552562311   15.64273439698180    5.15044609330569
C         8.13473800427287   12.82276070716936    5.15046014699375
C         8.07853844216904   15.58666348584318   -2.33796685186776
H         9.85572117094198   15.41721425209846    5.53251633762334
H         9.12126951502873   13.04827915238152    5.53253860036919
H         8.30407421338191   14.60012698568577   -2.72002788636994
H         9.86783374499948   17.31286046957042    2.15176786086196
H         9.10917672275681   11.15265394583165    2.15177285864746
H         6.40843323997518   14.61230596041901    0.66072230862102

