48
CSD_code = SAXQEN | q = 0 | S = 0 | Stoichiometry = C13H25CoN4O5 | MND = 6
Co        1.80222987650948   -6.45479800195307   12.45823032018081
O         1.82463468667141   -7.46624774986004   14.47426301899639
O        -0.75256209887506   -7.69644821913421   11.89335542800696
O         4.41530642196504   -7.59721319479304   11.95639801277513
O        -0.74309546151455   -5.48522555321370   13.05264708981662
O         4.30518570121702   -5.36652699895666   13.04980095524926
N         0.58728746230712   -7.79911839886917   11.86758659622495
N         3.08223774638379   -7.74518798653034   11.89100944267734
N         0.53614274400480   -5.26858914354712   13.12272352900650
N         3.01413892892278   -5.21489005514346   13.11892614590380
C         0.37704208327182  -10.09272185725347   11.00483371044974
H        -0.68889947643661   -9.89092886275163   11.07154410589616
H         0.61891795600849  -10.95558079325901   11.62302127584423
H         0.63287383086843  -10.33086981959002    9.97375173551594
C         1.13681340010877   -8.89250154577161   11.46425161517199
C         2.58615052180971   -8.86426803249867   11.48695866438519
C         3.40517877256115  -10.03737688871636   11.06079938961969
H         4.45938572063971   -9.80342368049387   11.18415711755453
H         3.21216645685416  -10.27200846745827   10.01517935812548
H         3.15795772590190  -10.91331599860886   11.65782804012855
C         0.19442394583545   -3.20567724650514   14.41995187394539
H        -0.85376447251786   -3.44743123269996   14.25840464680621
H         0.40558685990280   -2.22366008072288   14.00000457732538
H         0.39427498282375   -3.16800286719494   15.49026918380450
C         1.03399211950713   -4.24853665581857   13.75460934076852
C         2.47280004897427   -4.21883666685361   13.75402715686071
C         3.26750459001755   -3.13850289940596   14.41392460365885
H         4.32526814552586   -3.36772577057422   14.30569899913304
H         3.01933170681472   -3.06092176038470   15.47151437148265
H         3.06172416905530   -2.17793558489062   13.94400705795620
C         1.63626187045273   -5.54021024545387   10.69319117988418
H         0.55488029499638   -5.53318741825943   10.50409540609026
C         2.14399349031443   -4.10800194188800   10.55864476860005
H         3.19366208678934   -4.04439522885113   10.84471554880444
H         1.57388720911942   -3.39412864169620   11.15014283975312
C         2.01181258481813   -3.83543722927425    9.05294608715040
H         1.03064459474505   -3.41255480527440    8.83653690055464
H         2.76356724371815   -3.12510654480369    8.71158318095464
C         2.16390891748217   -5.20857627507753    8.37073954920850
H         3.02256668867391   -5.23496663469017    7.70105215045198
H         1.27616302029388   -5.44049046353313    7.78226758039192
C         2.32265041401144   -6.22499984393409    9.51433973366985
H         1.88138922995426   -7.18803910140895    9.26074873652530
H         3.38361964635188   -6.36764354061696    9.72047615934766
H         1.03846697347822   -7.23918217272162   14.98028740870382
H         2.59585709623588   -7.20645343955487   14.98738996015592
H        -0.91746761760725   -6.74544868333040   12.34844061282549
H         4.53350116105374   -6.62130577617806   12.38962483365681

