38
CSD_code = SAXQIR | q = 0 | S = 0 | Stoichiometry = C16H17CrNO3 | MND = 9
Cr        0.28947372526652    8.66613001488203    5.79191931614999
O         1.42670270200377    9.75043610337417    3.26491581736667
O        -0.19077679390356    6.41115316469904    3.91290403703516
O         2.93823241596605    7.31321599549768    5.69630728490060
N         1.45055140626132    9.10537986038765    8.95582718122171
C         2.01083092958148    7.24288473305675   10.56204181035951
H         2.15052624942750    6.15964199148878   10.54267555074108
H         2.99217967918837    7.69320253022071   10.71656462349321
C         1.07608842755417    7.60271722449026   11.71020642256947
H         1.50859091948476    7.26399740546158   12.65309399124485
H         0.95601331126313    8.68666528950266   11.76099277427284
C        -0.28162589706560    6.94915090056277   11.48430393668022
H        -0.94487385094048    7.15074516497676   12.32744789591654
H        -0.15975374582508    5.86697857758282   11.40143791055347
C        -0.89909348779627    7.50368591845525   10.20783175442832
H        -1.03419434509538    8.58221786302321   10.32836474074427
H        -1.88246315783961    7.06144568168865   10.03422161264933
C        -1.53269866408293    8.28963314745286    7.09434814288059
H        -2.25828129696156    7.48418218498039    7.10130028676334
C        -1.76808245496063    9.45303699259494    6.32972878374391
H        -2.67340626702963    9.53909271451326    5.74249315029733
C        -0.86146874213771   10.51470259714673    6.38363281632130
H        -1.07499240663821   11.42564826679552    5.83574576857129
C         0.27011281605025   10.48281733192759    7.22706177566024
H         0.90024131735994   11.35737919361917    7.31890636898515
C         2.72891562609751    9.75969304660928    8.81403235966914
H         3.36000099159747    9.51146312860533    9.66406899756664
H         2.58553079728037   10.83884866285247    8.80380546511886
H         3.23651931721473    9.45617515517498    7.88854754664969
C         0.96556032174445    9.38139184114270    4.25981473735148
C        -0.05429294910423    7.28284712265269    4.66224119568213
C         1.91358626345145    7.85101108354896    5.78925253100516
C        -0.01367195124231    7.25116745474279    8.97411906126916
H        -0.08997934552894    6.20670835692999    8.66541652106225
C        -0.40967766377074    8.23714549322672    7.90943423728970
C         0.48158632555797    9.34065482916812    8.00454942242240
C         1.45680710432414    7.65589953063650    9.20321993134049
H         2.07198237324720    7.17965344632839    8.41772424002270

