103
CSD_code = SAXSIV | q = 0 | S = 0 | Stoichiometry = C42H46N4O10Zn | MND = 6
Zn       -2.41333017184723   12.84854671028260   -0.00433839730782
O         3.05394478398076    5.79927426220917    3.97152155278818
O        -0.49251016106618    5.77041668435854    6.83530276472084
O        -1.16019293836362   11.96349308313863    1.29452748610055
O        -2.70286744661188   10.91576795581390    2.50072393825370
O        -0.85957686431393   12.79802353566632   -1.49542103339038
H        -1.23943489698701   13.57504536665033   -2.01321021938632
N         1.31021528493776    6.10513717844837    5.44324115504552
N        -3.06249338218019   10.95550534115441   -0.69209525109755
C         2.01296927304653    2.82497267442405    4.03005768266999
H         2.85506392327883    2.83954652743234    3.35584308435790
C         1.30998308559730    1.65291799760769    4.29284699398801
H         1.61135872358785    0.73453357617203    3.81147641512302
C         0.23000937269313    1.64418626172125    5.16166781220779
H        -0.29588262203310    0.71909831084718    5.34501986905291
C        -0.18824299331460    2.80684950954966    5.80232138639267
H        -1.02705410778502    2.80723225109716    6.48073111262645
C         0.50809991701750    3.96766310153721    5.54033675345311
C         1.59601526911441    3.97664111576043    4.66329524774009
C         2.12122378694530    5.36321034722715    4.59748292012559
C         0.31976434783276    5.34894216370765    6.05210346258694
C         1.45600943236909    7.53035352394982    5.63486043070111
H         2.45504778746638    7.79635340461292    5.27993522087761
H         1.37758699195262    7.73924506339503    6.70557115612679
C         0.38986787179845    8.32820595874686    4.87335499096399
H        -0.59444568564179    8.03190752551525    5.25088541170685
C         0.45072095386389    8.04592414513948    3.37259870100799
H         1.44699815883806    8.29475670358966    2.99888472819655
H         0.28121560175877    6.98271523444837    3.18169137357010
C        -0.59768182057045    8.86334837944510    2.62528741289873
H        -1.59882230446547    8.58132998362504    2.95870945523951
H        -0.53127157823549    8.65765691360427    1.55421580109181
C        -0.41007535472145   10.35960853290088    2.87816790812014
H         0.54953636534370   10.69008017947852    2.46921920504917
C        -0.46397768682643   10.63974690585764    4.38013619856146
H        -0.30373075233555   11.70507158758413    4.56100775296228
H        -1.46169220455835   10.38432898527332    4.74212813202599
C         0.58627651550787    9.82262274943448    5.12487974625911
H         1.58299583850170   10.11549597506344    4.78510932485776
H         0.52136523069317   10.02939224585257    6.19528816571908
C        -1.52769010235058   11.13941909324383    2.17364359150219
C        -3.89378423209712    8.43522755625321   -1.48973176879358
H        -4.21950835893842    7.45107121833104   -1.79305363633434
C        -2.57696606570597    8.66739526135227   -1.12908758931893
H        -1.84726840592439    7.87316260332166   -1.14774581835898
C        -2.20745427735412    9.94463591255535   -0.74093878776344
H        -1.19280930749815   10.17526435833095   -0.45724597929213
C        -4.31962147762345   10.73928486240025   -1.05516251653437
H        -4.96803164377404   11.60277641626887   -1.03877335495334
C        -4.78183217678713    9.49857960455440   -1.46013517402461
H        -5.81461962701929    9.36897502049264   -1.74361485803207
H         0.01329800166637   13.07204748401374   -1.20555863699045
O        -7.89704034398775   19.89496170658557   -3.95798527288089
O        -4.35685509411933   19.93403554891459   -6.82939930252457
O        -3.66852115231114   13.73288237636747   -1.30193370813233
O        -2.12970289827175   14.77944137182628   -2.51405666138230
O        -3.96838579110875   12.90170971935333    1.48511638534623
H        -3.59129078005659   12.12270025776402    2.00165882142436
N        -6.15628134247301   19.59428027798492   -5.43428222639073
N        -1.76146998134967   14.74106759813673    0.68214860331823
C        -6.85989377049846   22.87069545042961   -4.01279635517825
H        -7.70053654530581   22.85376249342893   -3.33682717768877
C        -6.15892742133830   24.04414702098071   -4.27475687851548
H        -6.46044302967262   24.96120854727286   -3.79095511538009
C        -5.08079748063207   24.05594672578753   -5.14582765287119
H        -4.55644358212724   24.98205000267918   -5.32846213275299
C        -4.66246246931988   22.89507614210796   -5.78967189805611
H        -3.82508462575523   22.89706692778341   -6.46984723889715
C        -5.35683876596219   21.73288867258931   -5.52855472097426
C        -6.44286890561264   21.72080438158425   -4.64921776808900
C        -6.96627237758661   20.33346779633488   -4.58514475661037
C        -5.16798430943331   20.35290570004693   -6.04362133638914
C        -6.30089768184457   18.16930740351889   -5.62867021678665
H        -7.29858482400558   17.90133717869105   -5.27142593569356
H        -6.22537362434505   17.96287081197082   -6.70006774772302
C        -5.23157786058195   17.37106256459195   -4.87203913674123
H        -4.24873765049655   17.66928769641634   -5.25187608811439
C        -5.28832182363742   17.65019419519884   -3.37053873322364
H        -6.28323020440229   17.39952216795395   -2.99440757124867
H        -5.11938746327445   18.71319149241589   -3.17794756333394
C        -4.23686514498306   16.83235603409878   -2.62798844261928
H        -3.23700660663849   17.11609304384971   -2.96380249881586
H        -4.30038513281547   17.03587557975913   -1.55633427772161
C        -4.42378546274791   15.33640421343993   -2.88333757421500
H        -5.38204116105299   15.00440320642286   -2.47242572531770
C        -4.37379750347826   15.05936764655224   -4.38598316381400
H        -4.53353808742811   13.99426141817272   -4.56858102370784
H        -3.37735691372923   15.31645833442673   -4.75027631891900
C        -5.42700754248219   15.87693707809907   -5.12607987151793
H        -6.42245027221944   15.58225664061418   -4.78412673268959
H        -5.36488473226263   15.67245482496429   -6.19709061772647
C        -3.30381216350611   14.55635010578154   -2.18276005679199
C        -0.92474095992052   17.26033856264084    1.47720877796762
H        -0.59683219418476   18.24417713154824    1.77927295085608
C        -2.24217285887196   17.03052646199098    1.11729916414198
H        -2.97021564496604   17.82631325921947    1.13536058094091
C        -2.61449595900780   15.75366160496261    0.73050175040470
H        -3.62972204173535   15.52471661122099    0.44744783188372
C        -0.50375289350966   14.95504958596145    1.04454773943462
H         0.14276001476714   14.09010586433407    1.02874551627375
C        -0.03886603512757   16.19514547662527    1.44830882164785
H         0.99430279911533   16.32292774960629    1.73131631966318
H        -4.84101957454227   12.63015999366746    1.19220491307944

