103
CSD_code = SAXSOB | q = 0 | S = 0 | Stoichiometry = C42H46CdN4O10 | MND = 6
Cd       -2.20083131146630   12.66079728219433   -0.40596058540141
O        -0.22587280008941   12.12525755251021    0.43996045001813
O        -2.04207592968244   11.71598488077967    1.59826666950810
O        -0.62828001078595   12.12918931202160   -2.50339872389218
O         2.94311387479952    6.14866233063709    4.43122828418265
O        -1.34923987017178    6.19298696268052    5.96532849157791
N        -2.84143921801798   10.48844059621738   -0.86750943230461
N         0.82216909845840    6.48833503998320    5.25909236714340
C        -0.07956371142309    9.38588229842462    2.09614626046874
H        -1.13504096350127    9.10087306725013    2.10024274022682
H         0.30870540362424    9.22781919076091    1.08769923876997
C         0.02666923355945   10.87130242114612    2.45833198979191
H         1.06834073423802   11.19203608872600    2.36635382820029
C        -0.80302601866379   11.64190373135851    1.43887672455570
C        -1.91006691142151    9.57476390286360   -1.11552100057128
H        -0.98764530211092    9.94259613266677   -1.54488760712400
C        -2.09254385442739    8.22529538673123   -0.85600456601062
H        -1.30439669755266    7.51992819161984   -1.06935565949486
C        -3.29695110607984    7.80681654482312   -0.31419300651541
H        -3.46967022187753    6.76446160171445   -0.08871860946278
C        -4.27542505543083    8.75739381657711   -0.07155803832288
H        -5.23135123728880    8.47868172102892    0.34343387597273
C        -4.00236545762737   10.08450022968476   -0.36270776078043
H        -4.74371309141233   10.85510038399769   -0.19311409731965
C        -0.48148044498485   11.09800925251155    3.87913429594741
H        -1.54408462749262   10.85157891486169    3.91088060072259
H        -0.37620480449314   12.15232638687144    4.14258102997218
C         0.28660346705817   10.23334152921645    4.87375618671221
H         1.34110604026643   10.52028442712690    4.86747428586224
H        -0.10172120951102   10.40066982987235    5.88034832276335
C         0.68927587439003    8.52635443106342    3.09402447959642
H         1.75165344001847    8.77747328419411    3.05521349692416
H         0.58627477200657    7.47387864976909    2.81687543785030
C         1.87217666163388    3.20262600029147    4.09438582453634
H         2.88890396857888    3.19942837808808    3.73374476956047
C         1.29712381163491    4.36049283115755    4.57401483234677
C         1.09566385310532    2.04753916322452    4.09506603936049
H         1.51763167048509    1.12472019435484    3.72599515380875
C        -0.20928034518386    2.06104106510766    4.56238783265989
H        -0.78647242603010    1.14852936095897    4.55114449431133
C        -0.78824504553862    3.23014160213431    5.04728398893772
H        -1.80258852531573    3.24791379362627    5.41435815057124
C        -0.01838834440852    4.37404943947080    5.04540636769535
C         0.93633566599209    7.90352374317266    5.53187134299263
H         2.00183409796314    8.14530330698124    5.50305205446757
H         0.54375108332568    8.08960340581118    6.53563959113910
C         0.16730387491425    8.75305262470531    4.51252510650916
H        -0.88788853948297    8.46329232750971    4.55406400280174
C        -0.33220116981334    5.75518769925807    5.49110997362702
C         1.84771152676282    5.73199803626249    4.71032362312350
H         0.13401762014229   12.38560503701703   -1.97171141432619
H        -1.03234307075837   12.95062916408396   -2.81462507733663
O        -4.18789455857554   13.34315949874204   -1.01682757915417
O        -2.50305607228913   14.19909438040218   -2.12991970661598
O        -4.79493590965636   12.90186589270029    1.82675015339139
O        -7.61791335531843   20.00058300519166   -3.66004401767615
O        -3.90623201826031   19.80539927131213   -6.29866743583403
N        -1.87489672636252   14.75003870096106    0.61579909219989
N        -5.81564637545782   19.58817664096557   -5.03158012670743
C        -4.41909968156765   16.48059440375566   -2.23492185358478
H        -3.37190348083501   16.70987435504752   -2.44750563763702
H        -4.57775428141641   16.60141513910174   -1.16054141310480
C        -4.69016842098275   15.02833757597583   -2.63518425099435
H        -5.70916973773881   14.75085564818669   -2.35095274930605
C        -3.72374380286705   14.12362929505469   -1.88189451803352
C        -2.85426212468360   15.40285780259061    1.23179571228940
H        -3.66400137506140   14.79883226255536    1.62479054193978
C        -2.85740997032320   16.78202572801341    1.38304918727891
H        -3.67845314679612   17.26869919074243    1.88619083058665
C        -1.79670916583123   17.51305126986868    0.87492177933537
H        -1.77166674359622   18.58945520739831    0.96481345951912
C        -0.76377973433727   16.82918788944518    0.25324668307631
H         0.08892797266069   17.35511685171248   -0.14751878915623
C        -0.84782864167527   15.45047911366176    0.14747880084182
H        -0.05662386298122   14.87832434632564   -0.32270280428048
C        -4.49802330076770   14.86202158441063   -4.14202105286097
H        -3.45407496815767   15.07099212911016   -4.38373775721904
H        -4.70944627707955   13.82942851944033   -4.42753836726826
C        -5.41114201373391   15.81168869894109   -4.90943349599730
H        -6.45375678928733   15.56721349442694   -4.69269004462890
H        -5.25153475634241   15.68618068919214   -5.98230980768546
C        -5.32852513306518   17.43262907687829   -3.00542742953606
H        -6.37069235283975   17.23307568777605   -2.74620734435713
H        -5.10534343257730   18.46162202909008   -2.71181626550325
C        -6.34467414515351   22.88326725653583   -3.57754434549826
H        -7.22406816708960   22.92121308575796   -2.95379325534561
C        -5.97921997647874   21.71460357510501   -4.21153052984998
C        -5.54169624439846   24.00295065272121   -3.77414448738258
H        -5.80181004525676   24.93326846372223   -3.29171404784835
C        -4.41529486982684   23.94495179281639   -4.57992537101921
H        -3.81315880252646   24.83101594081733   -4.71484602377360
C        -4.04762888207588   22.76479884141705   -5.21968739686973
H        -3.17356551220828   22.71269777796360   -5.84994868205780
C        -4.84300855124572   21.65581386497445   -5.02316430395891
C        -6.07719882591655   18.19197280398135   -5.29827606782487
H        -7.11785422420652   18.00555670831985   -5.02120860355764
H        -5.94556049588141   18.02291076633729   -6.37090900081329
C        -5.14256224150713   17.26329365274401   -4.51331896255234
H        -4.10992454483751   17.51616492895252   -4.77640198124103
C        -4.73191086244053   20.27522182486623   -5.55773293745879
C        -6.61626871784235   20.37413491023568   -4.21519863137552
H        -4.85543313783188   13.01478601450355    0.86959538946810
H        -3.98726996715526   12.39666921413169    1.98199881921446

