75
CSD_code = SAXSEQ | q = 1 | S = 0 | Stoichiometry = C32H40F2Sc(1+) | MND = 12
Sc        0.09996731552368    3.77199605887490    4.94124336438697
F        -1.39199267959731    4.91542717848318    5.97362549322543
F         0.33621482016981    5.75552232744013    4.16394985105009
C        -0.64651551518059    1.74904900369295    3.96810888195270
C        -1.79372353071508    2.55180185171901    4.23716868730921
C        -1.74122099227862    3.70078790505662    3.39684742926023
C        -0.55152840423752    3.62050909854087    2.62111083917757
C         0.13349037703194    2.42594644549672    2.97515875765694
C        -0.53898219275293    0.29919485013153    4.33081090182552
C        -2.96862174428145    2.10804327693008    5.05878371850376
C        -2.86030994903698    4.68014935202747    3.19956372570245
C        -0.17386397097558    4.48172087845589    1.45345585016212
C         1.25015781213271    1.84048442775028    2.16456368223620
C         1.11804570338473    2.51176024003335    6.68964041149169
C         0.80394808512176    3.78010527103298    7.25005913718683
C         1.56120388236029    4.77138980146466    6.56605794360760
C         2.34767017826130    4.11523229515457    5.57616845901261
C         2.09192890959211    2.71517418956573    5.65867536585463
C         0.76784252871794    1.20834776335395    7.34169163999269
C         0.00300543148826    3.96115893511998    8.50441855835195
C         1.69675114736606    6.21074339481488    6.96637313923894
C         3.45393630659221    4.73147026493816    4.77064123660170
C         2.99545683438543    1.66611388491485    5.08572046149730
C        -2.23297084818153    5.70276531339884    6.77507957405202
C        -3.30912539275371    5.09974699736285    7.39043584154622
C        -4.13610402597788    5.88818476554906    8.17512604749117
C        -3.87344006077954    7.24027206783799    8.32612036597909
C        -2.78124734324859    7.81624710783504    7.69784274815185
C        -1.94237308906980    7.04440852378139    6.90874670212542
C         0.34837805797839    7.01213152757619    3.53939645137750
C        -0.80218220414077    7.77189151904281    3.57515383739946
C        -0.78037412735226    9.01487577284040    2.96152689673612
C         0.37116971208201    9.46382214153812    2.33554024439151
C         1.50979490202418    8.67455870058405    2.31315121450231
C         1.50776788596934    7.42872566769334    2.92082728624481
H         1.64151847572418    0.93485593831818    2.61734319522268
H         2.06771651051338    2.54826870560551    2.02528944098993
H         1.08349189215840    0.36191193325602    6.73982561034763
H        -0.30139811827023    1.12440535420665    7.53753766110345
H        -0.89090477967495    3.33734456527715    8.50203302210199
H        -0.29576410911214    4.99640022538033    8.65610416209909
H         1.72386433136738    6.88157398845771    6.10658823677116
H         2.63130893713700    6.34700915283777    7.51432259204091
H         3.45481583332025    5.81410427141865    4.87325947502596
H         3.38033029180243    4.47168153318651    3.71258188408134
H         2.49549006067970    0.70736921022660    4.97668598818401
H         3.83730129914440    1.52009302146303    5.76729362519058
H        -0.97783602484602    0.09532360791543    5.30431306108951
H         0.48959166717447   -0.05160534820087    4.32376979423716
H        -1.08950834684336   -0.28736145425896    3.59089379356252
H        -3.71924852406459    2.89239917769429    5.12200758529227
H        -2.67166242237321    1.81380552673626    6.06746764843143
H        -3.43486360536804    1.23925955613708    4.59035741089569
H        -3.66499349600800    4.20079464913299    2.63838861334768
H        -2.53239392028741    5.54455478256713    2.62627371818870
H        -3.28424758809529    5.02497876690393    4.14380920270691
H        -0.44817608546299    3.97377650120413    0.52654893364767
H         0.90082287608966    4.66119316787479    1.41953357610118
H        -0.68631585289845    5.44150586609960    1.46720112993210
H         0.87339972909136    1.58227116868811    1.17252939901010
H         1.27911885930414    1.14281323598252    8.30454550397867
H         0.60611913703429    3.66200967682719    9.36417180702215
H         0.88549915132298    6.51635610957696    7.62359569377916
H         4.41656292205478    4.36309688697079    5.13002892287841
H         3.40036473446268    1.96769487631555    4.12293137935545
H        -3.49257665646417    4.04517609180464    7.26371558184146
H        -4.98473224387126    5.44179606163412    8.66840056193178
H        -4.52121671416773    7.84711976774515    8.93844889927212
H        -2.57605467499624    8.86789242077239    7.82062648814578
H        -1.08230089106318    7.47389047071140    6.41937393065295
H        -1.69229887618757    7.40186185480052    4.05932236159553
H        -1.66694328269672    9.62890936169728    2.97333146430086
H         0.38046164927465   10.43186334773310    1.86051896841072
H         2.40342337473164    9.02491638256141    1.82179204052524
H         2.38108066074741    6.79703078671118    2.91075289142996

