160
CSD_code = SAXTEQ | q = -1 | S = 0 | Stoichiometry = C69H74FeN9O6S(1-) | MND = 6
Fe        6.13622285799890    2.74585686941543    4.12923898912301
N         5.86606652759205    4.43786057684070    3.87668333296104
O         4.99749832355428    5.00110729391039    4.55555888135823
O         6.51578167132866    5.03311973232535    3.01088154879110
N         6.45514369987833    2.43030926379026    2.17577735355067
N         8.10444217936505    3.06018970183829    4.41763028863739
N         5.86125843291089    2.86772896594864    6.11351836160838
N         4.19350276074685    2.36516442200738    3.86167114743887
N         8.92943552147207    5.07275370039850    0.28317715670498
N         8.95954016439672    6.03998390771268    7.20190669878118
N         2.72510039553649    5.12101265936907    7.25936598620728
N         2.61738527194115    4.35284125648470    0.73901084986282
O         9.26808446414403    6.23223135237865   -1.64440607779643
O         9.96162584782149    7.97109611436677    7.86206595047027
O         2.02823021167044    6.64026003890032    8.80201410472478
O         1.08661110216525    5.78232935308131   -0.14879315814257
C         7.64466394395325    2.53752568572990    1.52686483772958
C         5.52660680661495    2.17476777842602    1.21463858947277
C         9.05006206982968    3.17318282185354    3.44626018082901
C         8.72532430179230    3.38831636670188    5.58624312387098
C         6.79406540299257    3.10709152772414    7.07723479308796
C         4.67118995028288    2.78089972115951    6.76069665229058
C         3.22236960872386    2.40326488308648    4.81007120112241
C         3.55358045287908    2.17741259066029    2.67662179290366
C         7.47710281813020    2.26643641073322    0.12440532053012
C         6.15593508963509    2.05612307965956   -0.07140652029967
C        10.30415620677212    3.58193146575275    4.01292062208377
C        10.10477899770801    3.70417689490989    5.34684166200010
C         6.18190787892787    3.11380884325433    8.37716097688513
C         4.85950655806220    2.91212432794360    8.18035126950545
C         1.92933991943133    2.21072282525359    4.21295009475317
C         2.13682045598692    2.06009850828190    2.88515169365158
C         8.85735260375232    2.92351341729919    2.09013425636017
C         8.13485146277447    3.39657669484878    6.84973983767578
C         3.42183486944843    2.62641542335117    6.16793481669113
C         4.15258704591560    2.11536782013418    1.42062671993956
C        10.00928395683150    3.12400952788973    1.18185312789116
C        10.02226540772472    4.20523107534328    0.28458439932129
C        11.11962060794871    4.37560181050847   -0.55458109034551
C        12.17914543800906    3.48740540718245   -0.51233538042482
C        12.16835569122220    2.42116191337497    0.36932685219330
C        11.08464157919639    2.24893440567112    1.21270754696360
C         8.58279711763364    5.97495206131293   -0.67448309664573
C         7.22630389287405    6.64824294427689   -0.42706281021381
C         6.96146611557888    7.61520296498261   -1.58333168411991
C         6.12848545013400    5.57752030682241   -0.38721301010466
C         7.26885819405552    7.41971638284246    0.89639631018515
C         8.96835615756242    3.78802733433082    8.01100856087574
C         9.36027530164517    5.12689415794592    8.17828782586460
C        10.12293290784119    5.48357890448996    9.28478769807451
C        10.50000896083116    4.52518078849038   10.20843514014685
C        10.12081315290561    3.20446159019796   10.04574912175378
C         9.35465951098823    2.84453071918647    8.95025874042098
C         9.30508805845109    7.34284223907080    7.05332453560659
C         8.83801011681415    8.00681672437884    5.74675867372184
C         8.11413769357496    9.30225434642841    6.13186398327482
C        10.12330062934840    8.34507898448698    4.97760405614010
C         7.93331724946116    7.15569342826688    4.85962821114839
C         2.22711387629110    2.77489403041701    7.02884796587541
C         1.89451724267409    4.03596728359776    7.55344082609500
C         0.75383917962008    4.15922254172087    8.34170855906989
C        -0.03242922502521    3.05517099952476    8.61776348432603
C         0.29750682435500    1.81197164036085    8.10812929101830
C         1.42260830073366    1.68164120218653    7.31294797521735
C         2.80218163201491    6.30389940802465    7.92731105789183
C         3.97580504220556    7.19677898723837    7.49646752788349
C         3.80448362158250    7.61544597664332    6.03269449837971
C         3.97391477088492    8.43845115352931    8.39218276289862
C         5.29167019721222    6.43123158301221    7.68236608760661
C         3.26881331755324    2.09282016882858    0.23288458629699
C         3.17927307770596    0.96597059478980   -0.56928598208172
C         2.37072525075525    0.95332614164537   -1.69271105072282
C         1.64888985930986    2.08629868506964   -2.02328319212879
C         1.72452441860122    3.22217467535228   -1.23740167027449
C         2.52492006983406    3.23977761935140   -0.09966601883735
C         1.87278566533716    5.49205004710863    0.73061997277933
C         2.10817938762039    6.39698868245388    1.95063819857420
C         1.90289680453783    5.60449645357322    3.24891034614026
C         3.52552412962900    6.97595703084069    1.90550913008207
C         1.09187430522214    7.54042109654804    1.88406185269917
S         6.48033311589797   -0.00735891812202    4.47716474109246
C         7.44618974968612   -0.00739936641914    6.02387322644179
C         8.21915545703542   -1.30553753275272    6.18662857382700
C         9.27271670714025   -1.47140681861123    5.09335566825274
C         8.63749971157907   -1.55221729495137    3.70668168967953
C         7.89393013993160   -0.27409933944020    3.35678438616506
H         8.26980340503961    2.24922735278661   -0.59914710381670
H         5.64475606206670    1.84330875286658   -0.99027159657328
H        11.20698308575624    3.74779356840133    3.45736756854331
H        10.81424725458741    3.98083234621537    6.10392074620092
H         6.70405467266692    3.26449978870742    9.30251876311006
H         4.07712584435662    2.84886364424803    8.91252710743945
H         0.99946657943888    2.19367773130240    4.74728064419912
H         1.41384004085938    1.88356143157605    2.11124235977749
H        11.12969972373719    5.20213878064077   -1.24446940508531
H        13.02061244123454    3.63430332509811   -1.17414937130357
H        12.99608072900786    1.72721716061442    0.40145933632483
H        11.06060085031489    1.41804852914811    1.90460336466247
H        10.41722029097367    6.51207994542549    9.40918965768380
H        11.09458332853250    4.81658969732957   11.06222241701951
H        10.41738855894720    2.45692678059137   10.76744701458469
H         9.04954748201692    1.81634980498387    8.81193608932931
H         0.49537826426110    5.12332844113819    8.74503716829402
H        -0.91136456702344    3.17188380651871    9.23551177868084
H        -0.31551952316994    0.94921012565496    8.32620877102764
H         1.69666393597734    0.71765372734548    6.90782665520995
H         2.30734311704954    0.06494193482560   -2.30457996037433
H         1.01849134603506    2.09041073946207   -2.90085997202900
H         1.15892315753321    4.10181250716748   -1.49411422191374
H         3.74763958531618    0.08813514073163   -0.29583836236843
H         8.26483697777156    4.91141028305095    1.03227781529880
H         8.39555477235556    5.62430385607082    6.47104807869890
H         3.42898680724071    4.93363913607930    6.55322176007512
H         3.24711845967605    4.22352554436707    1.52135522807144
H         6.00660694944820    8.11714192944342   -1.44479409999332
H         6.94302550971253    7.07644955306149   -2.52743896669434
H         7.74954283750010    8.36241493383098   -1.63828104208061
H         5.15140321647091    6.04585604791996   -0.47932952316110
H         6.15145296100934    5.02780521841723    0.55028068169530
H         6.24508838074058    4.87276823293485   -1.20859114501125
H         8.15486704504229    8.05119350685682    0.94203782484639
H         7.26702578203615    6.74133434502626    1.74536412281217
H         6.38892515950496    8.05454739785505    0.97678808590633
H         7.91096533327734    9.90005679441516    5.24614305966340
H         8.72857488363411    9.88111942304129    6.81740668534121
H         7.16881366884100    9.07721994699476    6.62172730097536
H         9.88549817082926    8.90721372202230    4.07722427835300
H        10.64185513395714    7.43262456932893    4.68838712527461
H        10.78717661736255    8.93936918140958    5.60130431839458
H         7.63763437282328    7.74194629614729    3.99185267502008
H         7.01971581861554    6.85540005084425    5.36710270465514
H         8.44322756680044    6.27046751475916    4.48294852013242
H         4.53942142522842    8.37902579738040    5.78316089954075
H         2.81150691060175    8.03157856488438    5.86998455610987
H         3.95629867631758    6.77302471588350    5.36313637914549
H         4.78353504387384    9.10933567367781    8.11289361647382
H         4.09794952475144    8.15179635468023    9.43356991445047
H         3.02889170459552    8.96803707460482    8.29995384441204
H         6.13087147517809    7.12339560176174    7.64563606519955
H         5.42512399731915    5.68857558071491    6.89945425974314
H         5.31459198876934    5.92812858418962    8.64738106600610
H         1.71249472241582    6.29257884480342    4.06928923455919
H         2.78446254896355    5.02587091182224    3.51386342713049
H         1.05218268263942    4.93051015971906    3.16694786946817
H         3.65864173317822    7.67167641687051    2.73120657261960
H         3.68768488030504    7.51130642973924    0.97162517623520
H         4.28369757247656    6.20379404884083    2.00184256291897
H         1.25666410989435    8.23875055330523    2.70124843162572
H         0.07983399689298    7.14857706859779    1.95211643737594
H         1.18328816164898    8.07179844583366    0.93996724761173
H         6.72302191555688    0.12940386336825    6.82661382874186
H         8.11832945410849    0.84976796518088    5.99779680024353
H         7.52298468386245   -2.14667917762839    6.15462408303727
H         8.70680891006331   -1.30524984528369    7.16537678394574
H         9.85098527928941   -2.37919782145028    5.28121145611194
H         9.96112555923375   -0.62273108950928    5.12591153379748
H         7.94310875171148   -2.39473783310263    3.67155995440170
H         9.41582659486904   -1.72233922980530    2.95772487130918
H         7.47507579224713   -0.31959006430575    2.35269092988892
H         8.54609811704239    0.59541281531819    3.43107172007444

