63
CSD_code = SAYCOL | q = 0 | S = 0 | Stoichiometry = C26H31ClN2O2Ti | MND = 10
Ti        5.93582061702203    4.54288721242953    5.77136648152410
Cl        7.56538604867742    5.83947002279614    4.91495127707637
O         4.95685045608612    6.08008463259981    6.38575956390397
O         4.17651120890164    3.55529867071734    5.36750465601315
N         4.84978001883553    5.73752140927556    4.25461882449954
N         5.98644156768858    3.15726199860888    4.23549308647157
C         7.56605087754802    3.19612064825766    6.76587692070787
C         7.61175565427186    4.43394602077553    7.46387810518996
C         6.36827793524827    4.61977228960412    8.12290304492097
C         5.55634843262492    3.49088589482243    7.85138551586795
C         6.29827874280401    2.60274354572629    7.02325091175598
C         8.73543480987659    2.57948641817805    6.05484475983405
H         9.18790655120428    3.29913391076206    5.37082783860682
H         8.43730266687468    1.70400338545193    5.48114776878996
H         9.49282865180369    2.27355899027448    6.78018412366452
C         8.82940716721668    5.28393842849987    7.66030945641985
H         9.31335227273417    5.01398376226239    8.60252745905333
H         8.56905536382444    6.34060602253046    7.70039839094410
H         9.53939568793815    5.13989891232401    6.84963596211484
C         6.06115764727115    5.74630477291181    9.06175955146866
H         4.98799468982791    5.89397306997841    9.16102890390922
H         6.50031673189879    6.67567363511002    8.70075415119514
H         6.47666421799644    5.53185267303370   10.04952407409916
C         4.20664678420203    3.18897104882889    8.42670057200403
H         4.27042553839442    2.33953559170722    9.11053055939771
H         3.50123486322955    2.93676962260291    7.63360556325515
H         3.81723970741092    4.04380168792128    8.97447987100476
C         5.87963876068013    1.19811381194951    6.70449698132320
H         6.03252786840208    0.56492099605358    7.58274298113334
H         6.46459022784398    0.78469663766817    5.88453559519050
H         4.82164402129924    1.15396741027515    6.44408317414161
C         4.45102242453802    6.43836304561529    5.26432815878521
C         3.53270186447021    7.63189534701016    5.20783603455094
H         3.39665098305069    7.96499120620332    4.18219544831465
H         3.96170564852948    8.43166360414101    5.80869398303323
H         2.56832887656000    7.36460360674818    5.63760555222192
C         4.36193362847029    5.73853068906383    2.95917686891178
C         2.99408833173043    5.63487860579440    2.69272375552559
H         2.29579480186973    5.60095505467443    3.51781665687348
C         2.54738940651982    5.54563674754678    1.38798183659126
H         1.48791271240925    5.46363884230871    1.19062245585164
C         3.44843739604478    5.55768924376274    0.33621183685133
H         3.09333788968546    5.48587781562954   -0.68092809583277
C         4.80673032623284    5.65718016722548    0.59575821774066
H         5.51231770776612    5.66487990305680   -0.22196312506228
C         5.26576856398509    5.74388041509433    1.89473687378940
H         6.32015336291213    5.82500335848415    2.11347273219653
C         4.69637780457795    2.97649240194962    4.36261993011174
C         3.80822509985615    2.22859814742817    3.39790302198387
H         4.26193149043428    2.18552237477280    2.41108928796189
H         2.85283057109359    2.74610890505726    3.34377740712562
H         3.62511804129333    1.21730340423725    3.75808623856500
C         6.80463414003317    2.54076560158864    3.28820284568670
C         7.83881396229386    3.27323181177977    2.70046789097319
H         7.97163401674454    4.30696290137607    2.98423960433216
C         8.68834477453943    2.67602326334701    1.79005917680041
H         9.47947145770691    3.25745586598330    1.34018692258162
C         8.53695940329413    1.33949931803909    1.45548438533055
H         9.20344083925431    0.87543476891479    0.74415370086599
C         7.53301377932875    0.59885887372946    2.05414307238185
H         7.41792121125597   -0.44913248304020    1.81667061159727
C         6.67338093636291    1.18758189980438    2.96370840395151
H         5.91396275752401    0.58804215873925    3.44353218393270

