140
CSD_code = SAYCAZ | q = 0 | S = 0 | Stoichiometry = C73H56BrN2O5ReS2 | MND = 6
C        17.08408517544098    7.42069094744427   13.64963084088483
C        16.15676861407688    7.99668258096987   12.73128532828749
C        14.25826072398247    8.54325858710270   11.74933273229813
H        13.19902301162776    8.62709538849564   11.62688022512773
C        15.27460081763043    8.95308754616661   10.95098401090589
H        15.25875643008273    9.46045177810911   10.00986795811537
C        14.07447376138411    7.48452756695185   13.97456199503215
C        13.41610074390042    6.25969824652221   13.88782578732341
C        12.70593548209769    5.79893552990433   14.98575304621212
H        12.21728611522569    4.84134485579131   14.91519618264340
C        12.64377152947069    6.55082191026590   16.15254714647396
C        13.30022709024150    7.78143243243215   16.21290649385828
H        13.24123610281012    8.34322442968281   17.13037430978710
C        14.02933695978464    8.25872557343315   15.14289795031688
C        13.46990431081752    5.47015116424615   12.59894874020608
H        14.47359732199948    5.57893434304620   12.16931744460301
C        12.47338459027409    6.01802527630076   11.60067786234845
C        12.74478205168675    5.90604175372976   10.24350552303139
H        13.66559385195850    5.44170066208624    9.92509163627594
C        11.85101380764995    6.38539526798001    9.30374080062895
H        12.07967513361380    6.29269128241674    8.25296876942757
C        10.66960435609907    6.98266080689186    9.70937995697717
H         9.96968973785765    7.35729940076996    8.97750109590564
C        10.38780361781832    7.09409943321627   11.06018985800565
H         9.46588926711719    7.55451163439040   11.38506421735894
C        11.28321467643689    6.61483955242484   12.00094608315013
H        11.05468143285537    6.70979588672515   13.05352299510354
C        13.25783260677688    3.98829916437727   12.83640109524730
C        11.98963842413152    3.42116081805075   12.83440225949698
H        11.12416188173741    4.03432760743980   12.62477845412871
C        11.82693842718976    2.07065834235146   13.08996338006996
H        10.83540600073767    1.64095644432500   13.08461763961269
C        12.92843525002849    1.27348904868994   13.35049156393842
H        12.79880293381060    0.22019343144634   13.55072737193854
C        14.19522478775593    1.83163150312423   13.34608460773624
H        15.06220679511402    1.21869290290210   13.53949358569573
C        14.35903990695021    3.18092937015994   13.08911443555473
H        15.35305528003346    3.60163505058012   13.07898088692141
C        11.35559676524276    4.91915999287453   17.30365377491647
H        10.55217772941887    4.84458339639310   16.56391747343800
H        10.93425107905738    4.82671915745497   18.30299605016403
H        12.07866239438396    4.11512906403273   17.13810575754206
C        14.76386576486149    9.57954738998110   15.23408997123118
H        15.66235744896474    9.51872797861512   14.60493381324724
C        13.94216494188181   10.74384938019120   14.71791131330925
C        12.68090721167481   10.58568005123496   14.16145437772253
H        12.23384172965287    9.60329215494410   14.10222414085343
C        11.97961104475878   11.68479325279944   13.69176641631732
H        10.99751689454532   11.54618863271124   13.26335517550987
C        12.52917837058740   12.95158464862650   13.77390603089618
H        11.97973075329361   13.80662843448969   13.40973605274810
C        13.78835267397372   13.11677619680149   14.32801211314512
H        14.22788925817481   14.10044844963829   14.39608892849269
C        14.48929601894376   12.02143840664487   14.79482700439419
H        15.46982064255059   12.15334115244350   15.22935764662386
C        15.25913592843844    9.83860296992093   16.64192732458966
C        16.51989770031573    9.39794096502425   17.01819550220184
H        17.14537676365377    8.88082907142317   16.30447180282757
C        16.99020077682286    9.61037175855724   18.30104194017629
H        17.97202567967821    9.25610530620044   18.57605566196198
C        16.20087044979205   10.27275266165039   19.22461909867697
H        16.56503829700361   10.44172201189249   20.22697375520401
C        14.94237712075808   10.71859071291270   18.85816271205407
H        14.32140262260945   11.23686581734771   19.57423828707959
C        14.47269746549366   10.50235449937200   17.57506349714697
H        13.49216576614147   10.85965296063950   17.29258140953829
C        17.73284289619610    9.10719661611202   11.18504797269241
C        18.61573086409501    8.33644471236852   10.41717381399948
C        19.88084262565442    8.83871278941307   10.18899053024543
H        20.60252493700642    8.27154613616574    9.62509956066402
C        20.28410675286116   10.06970323840734   10.70952767921771
C        19.37620747281859   10.83857726040381   11.42565260383771
H        19.65777459180532   11.79263486769155   11.84167044792359
C        18.08986280837912   10.37075905863001   11.65456796031426
C        18.19318501505029    6.98256344518635    9.89600656927310
H        17.93391196437754    6.35078642869202   10.75541932628288
C        16.99647143919434    7.05543102032354    8.97500655319027
C        16.23862451216815    5.90841492024899    8.77097030677974
H        16.47529451381626    5.01371371113797    9.32977653051988
C        15.21183900381975    5.90135561501861    7.84442173275549
H        14.64852671015570    4.99541011059743    7.67341059440553
C        14.91561360536638    7.04691382708177    7.12443972313254
H        14.11743742397278    7.04202668598072    6.39695168689856
C        15.65936428461342    8.19542504434581    7.32842434435384
H        15.43977445363372    9.09107873517856    6.76463974360792
C        16.70173253010215    8.19705383116584    8.23995290747290
H        17.29449930846229    9.09273252971330    8.37373550595534
C        19.29725975552978    6.27248848657016    9.13446290244899
C        19.66667895061268    6.70077264923735    7.86391273517797
H        19.16767023613259    7.54852214938323    7.41612343910975
C        20.66787637393735    6.04925526177234    7.16807657154058
H        20.94660371495908    6.39294208989712    6.18228575089701
C        21.31009677757423    4.95895933623214    7.73141914986179
H        22.09189736380866    4.45036612719598    7.18666443515848
C        20.94099018075608    4.52316850156225    8.99132497693686
H        21.43114880543261    3.67071251237013    9.43685857774306
C        19.93826811915110    5.17491674991920    9.68885660490687
H        19.65016164734011    4.81749541271262   10.66472260253881
C        22.05848896918059   11.62347119875159   11.00264443239484
H        21.53379642768737   12.49908660044581   10.60635329651994
H        23.10551673541266   11.67000585347541   10.70883082059505
H        21.98805412784296   11.61964663112336   12.09461038717696
C        17.08503797296044   11.25515206603871   12.36084674034051
H        16.31174549975806   10.63224603658413   12.82595597327989
C        16.38460366146320   12.12488072836211   11.33794363398217
C        17.09674808755032   12.90171630970707   10.43174986159837
H        18.17566189770110   12.89178092890245   10.44627155245748
C        16.43551221084479   13.69154573732743    9.50866486648606
H        17.00400804191439   14.29188283585990    8.81369281162122
C        15.05134467950728   13.71610157248893    9.47514849696949
H        14.53668187764041   14.33532571040683    8.75589798577652
C        14.33406588418843   12.94183425529714   10.36965571973252
H        13.25432385974789   12.95087702378388   10.35570118624582
C        14.99671131099529   12.15021968720533   11.29112831736649
H        14.42326558223044   11.55362463671557   11.98538739688795
C        17.71922412971388   12.02659757047367   13.50141442086472
C        17.59755149569030   13.40066602485713   13.64058725373051
H        17.06975969931360   13.97386350145365   12.89254464438145
C        18.14097104917365   14.04133821409901   14.74244228494212
H        18.03967356657075   15.11250350053100   14.83938793733305
C        18.80299359256083   13.31703195390999   15.71770287821859
H        19.21793522527590   13.81858578803672   16.57899860986660
C        18.92957420179879   11.94381673211140   15.58488246001339
H        19.44154210421679   11.36802667765588   16.34105845700235
C        18.39254078085265   11.30651874259116   14.48330315772606
H        18.50216364151114   10.23639940097323   14.37691032885377
C        18.63412511876010    4.10020717228383   16.19057808565506
C        20.81295685223962    5.23714827355057   14.67894552362148
C        19.36384833616961    6.81590743204569   16.53220582517756
N        14.81069894207988    7.95626402793287   12.85014942876396
N        16.44683912105775    8.61363143366015   11.56159298492724
O        18.37698660434461    3.18185338139344   16.82559200605756
O        21.89182262145253    5.01143468930482   14.36703817281664
O        19.59021633091109    7.54657369691424   17.38543528715014
O        21.56179680505536   10.42753139935224   10.44879076779949
O        11.97501602170905    6.18508241808876   17.26919693047090
S        16.55705249346729    6.38445941496288   14.89164903319336
S        18.76566854747916    7.63068997943319   13.48505588308850
Br       18.24518766720011    4.26611820348327   13.03701519961213
Re       18.94272028509075    5.65029870200628   15.04862381671773

