65
CSD_code = SAYDUS | q = 0 | S = 0 | Stoichiometry = C14H38B9NOSiZr | MND = 9
Zr        8.64658114015426    4.61954266280570    8.06347230733684
Si        9.94347751864741    1.36199926100770    7.94947712656308
N        10.72733252370261    5.32501425098302    7.27522698242983
O         6.87497655699214    4.77312371775874    6.23760515270424
C         9.26790038478701    6.29755375158535    9.78780202748179
C         7.87053785119041    6.70471191290870    9.25155512499878
H         7.84739693082111    7.48373529049848    8.47755900136921
C        10.46604595731264    7.02142916828734    9.16855031714207
H        10.11364042148664    7.89416158731436    8.60280040313723
H        11.11161766292741    7.41646211890855    9.96294955883375
C        11.39334121848137    6.18984154716299    8.25994023725609
H        12.06477773588464    6.90223231217781    7.74190628589237
H        12.02780291477066    5.54796345059910    8.88804812353438
C         9.58176881819271    6.02291108174060    6.57883365667889
H         9.52979232535172    5.59130647489343    5.55602230764206
H         9.84752043359344    7.09191058405566    6.42997069194375
C        11.73584545066448    4.85194590027084    6.32447899393906
H        12.10317834295536    5.67353459379305    5.68849032288546
H        11.30035080648425    4.07942259378344    5.68718484852952
H        12.59193446073919    4.42384407936200    6.84803000984144
C         8.81633364309288    2.59447862829615    7.09745033751248
H         7.80359444646310    2.16287221674613    7.08203994245444
H         9.11719444702216    2.72630818007532    6.04479695721600
C        10.26755001703906   -0.26252198019938    6.95991669067289
H        10.67469084480756   -0.05283585805625    5.97492865964986
H         9.34987306188682   -0.82510094831953    6.81785216178606
H        10.97173618011421   -0.91239972070351    7.47003298310893
C         9.24821504172294    0.81245302325177    9.64843885892137
H         9.29610844163686    1.61529555819717   10.37760629574939
H         9.81213411896080   -0.02799960169486   10.04178586433570
H         8.21262908591805    0.49630950053209    9.57211403720676
C        11.69173875962865    2.08710121680048    8.28541621662505
H        12.29945816050358    2.10432422808100    7.38664958650706
H        12.22023226113924    1.48444554482793    9.01736094210388
H        11.62451703872800    3.09960502449941    8.67741375884463
C         5.78672890538665    3.84154797197545    6.07676717983998
H         5.52351184642543    3.46862241754148    7.07499016737541
H         6.12197149928197    3.00658417401411    5.45216596369819
C         4.62069044861309    4.60090699882196    5.43108259969771
H         4.59156549390812    4.41635234909783    4.35683465795807
H         3.66387031458577    4.31404557671140    5.85928903193471
C         4.97646273749746    6.06065868897205    5.70548077846314
H         4.66568516204269    6.34691344171787    6.71038717986603
H         4.54035750868900    6.74756511061206    4.98487021256496
C         6.49750827684388    6.01238433955839    5.62421222837918
H         6.82987246699813    6.01624838863662    4.57619286848913
H         6.99753186571613    6.81843968129550    6.16858951412567
B         6.78333969979135    5.47776404479996    9.32795359516037
H         5.86047315713277    5.47677809043223    8.56171912044749
B         7.60699629537422    4.11994928207481   10.07026361614619
H         7.27345002897778    2.97418862773499    9.92345632186103
B         9.27643771173530    4.72311987546343   10.31318771127638
H        10.31568396111915    4.12074108640841   10.27544631032006
B         8.32025610991625    7.35276776453841   10.80369749350947
H         8.64776689803847    8.48540870283986   10.84527608535890
B         6.67982535544060    6.80704604068037   10.52126915038606
H         5.82650263183888    7.61716853188313   10.41940157182818
B         6.54650785284654    5.14287888628453   11.07694406874352
H         5.52749983979657    4.72215781748859   11.50342201698196
B         8.14266216119825    4.64592076541489   11.68983763765246
H         8.28439339786730    3.87139312092606   12.57092915514541
B         9.22917953404075    6.02883420019838   11.51610586795822
H        10.20151393934715    6.28609860539166   12.13482637889019
B         7.55005752024511    6.31939536092698   11.98541184259768
H         7.25287237550660    6.71543870534588   13.05478290050602

