65
CSD_code = SAYFAA | q = 0 | S = 0 | Stoichiometry = C14H38B9HfNOSi | MND = 9
Hf        4.16076876101660    9.85820622394119    1.10759477702114
N         1.88754682338819   10.66292406159673    1.91698445095237
Si        2.83702496118608    6.61183075141416    1.33212300717245
O         6.01220975989648   10.09278033543325    3.02410210509758
C         3.48719502548436   11.66461274997100   -0.54922618314063
C         4.90578723642059   12.03004049726241   -0.04591696258724
H         4.96220096995073   12.80180947954773    0.72959192560178
C         2.32890948631455   12.42536304953675    0.10041673626701
H         1.71909598483065   12.90305808744255   -0.67556866072249
H         2.72989823750803   13.24332605804097    0.71075745523367
C         1.32996822767132   11.62510553673819    0.95605112641442
H         0.70801122943795   12.36969860300053    1.48710899163803
H         0.65917270351294   11.06304849302268    0.29340572559331
C         0.83526159916109   10.32845121200232    2.87334912235919
H         0.55417599908610   11.19257031949680    3.49538573148592
H         1.18386398300984    9.52633756358632    3.52359790352390
H        -0.05657492448421    9.98228408030762    2.34897419052162
C         3.13393249861135   11.18923876849479    2.60987792945968
H         3.13345797313212   10.71457969062228    3.61104481007460
H         2.97716028841931   12.26802982039532    2.82295485653156
C         4.00379557801661    7.85943326588775    2.12612518829153
H         5.00884797296667    7.41680190866043    2.15679625689285
H         3.70966439384206    8.01109979869084    3.17351070251995
C         3.44869555878309    6.05065888816531   -0.39333408840112
H         4.48319025961223    5.72385264840859   -0.36645346174619
H         3.37215203096616    6.84618527757704   -1.12739753446928
H         2.85766028504910    5.21412651608659   -0.75357906628861
C         2.58313977285300    5.00827240125657    2.36208637623593
H         3.50672940677167    4.44456660822974    2.44928840924654
H         1.84467845260060    4.35476033180821    1.90851753893258
H         2.24360067844710    5.23281121652780    3.36873155270696
C         1.09573455945841    7.37696157815853    1.09893099273976
H         0.54238709161244    7.40186536440694    2.03151596711502
H         0.50894478807377    6.80012913497606    0.39127319801148
H         1.16485125135777    8.39431249924650    0.72326349485224
C         7.11250918450393    9.19082003832317    3.23269302478053
H         7.37780105939172    8.77102995224677    2.25737591746567
H         6.79232263743769    8.38162666046777    3.89703121671341
C         8.26728456055586   10.00095782971923    3.84110102152829
H         8.35336570509116    9.80016812638540    4.90886589510263
H         9.21745532147427    9.76938709591407    3.36721832194667
C         7.83327218181141   11.44801767694715    3.60815869670825
H         8.12141990255386   11.77738904080221    2.61022649515520
H         8.23811802947129   12.13693525071735    4.34462873773387
C         6.31753801088109   11.31800159701370    3.69368558859194
H         5.77168221416256   12.11537522317837    3.18818701114392
H         5.98982136607406   11.25821695662900    4.74017887405446
B         5.97015234433079   10.79051841870536   -0.14713526479184
H         6.90107755820328   10.76064242009675    0.60524190456362
B         5.09427860171599    9.43850804054683   -0.89568136019907
H         5.40476878102345    8.28386275335841   -0.79987426554735
B         3.41422902077305   10.10399670028633   -1.08062699278243
H         2.36808740138273    9.52217124672796   -1.02426353803601
B         4.43923259114992   12.70500623250596   -1.58281854212422
H         4.14267511205531   13.84560973653388   -1.61194979999686
B         6.07200173724928   12.12149809240845   -1.34157780703492
H         6.94611230078018   12.90970362840228   -1.25950123639710
B         6.15230425924968   10.45541580420520   -1.89686397489328
H         7.14510567372924   10.00671363928767   -2.35288301676564
B         4.51618804978444   10.00141441680072   -2.47825187839450
H         4.34004961033499    9.23381468107257   -3.35825329535559
B         3.47939783066943   11.41490778513772   -2.28315577294530
H         2.50437630186960   11.69930783339946   -2.88302743002279
B         5.15742753621599   11.65593898681246   -2.78435044606318
H         5.44240621210095   12.04181131542881   -3.85976264927529

