44
CSD_code = SAYGUW | q = 0 | S = 0 | Stoichiometry = C16H18ClMoN3O5 | MND = 8
Mo        8.17159849806703    7.14532193668277   11.30427694820370
Cl       10.25627226720144    5.81043341935588   11.05102720837052
C         7.58806040043867    6.11080435559433    9.76355980109273
O         7.24792015007327    5.48639330509779    8.86508383062615
C         7.45176343000328    5.64068975336071   12.31259851506231
O         7.00853381433032    4.73810479077560   12.86098897946005
N         9.41382008431295    8.51879569543971   10.32886184409110
N         9.08860983440136    8.15015761114873   12.85621753950008
N        10.78159596724324    6.32837411154334   14.07008965998522
H        10.55944508304921    6.28920355264202   13.07203323533307
O        10.10967132195294    6.99344697602908   16.12655836050348
O         9.69292766957416    4.00917930163913   13.89905514636412
H         9.30102769141185    3.14200110191371   13.71028640300443
O        11.53436857554187    2.83944818227162   14.37910127070113
C         6.16261804517645    7.68343098655184   12.39498671892370
H         5.35359360580487    7.04404303517227   12.05050648508947
H         6.10058662910741    7.90081298796209   13.45689821173621
C         6.55968491537941    8.73682730052377   11.54119085592798
C         6.56514106953744    8.40390684066769   10.17214333666554
H         6.86439009115460    9.17832055274777    9.47072646585878
H         5.75447589466757    7.78355968027596    9.80124432148899
C         6.89058593231215   10.11649118077879   12.03580131290770
H         6.01137331797984   10.75085157907577   11.90054047264493
H         7.71197813790735   10.56550164730262   11.47469399626637
H         7.14064621395014   10.11440421058713   13.09557533409884
C         9.64236258288844    8.58472501553786    9.01696173824905
H         9.00526903320151    7.97110543155915    8.39279351745786
C        10.61953665903077    9.37713649433752    8.45519651818265
H        10.75597207145581    9.38990840630748    7.38609636528129
C        11.42332332849298   10.16036947264914    9.28810890894754
H        12.19074251645672   10.79466492524521    8.87245512474830
C        11.22047278376443   10.09015376781566   10.64420517877093
H        11.82611302279063   10.65312840569634   11.33736132494264
C        10.21483641355401    9.24607344437893   11.14334014842780
C         9.97650652593788    9.04049055241176   12.52637417427960
H        10.54841381398679    9.58997571545130   13.27157930326748
C         8.93287336619061    7.91299324928582   14.25990653483477
H         7.98971480553659    7.39337511685333   14.44622609084151
H         8.93701438660165    8.85122064809204   14.83052198345217
C        10.00834860500681    7.01780609869799   14.91877820311306
C        11.60562140856353    5.24532612112905   14.54020193476928
H        11.73457069712365    5.35146317425745   15.62285852220602
H        12.58740894959135    5.26936013629093   14.06023544482639
C        10.96741038925038    3.89051972886031   14.26675272949677

