35
CSD_code = SAYGOQ | q = 0 | S = 0 | Stoichiometry = C13H11BrN3O6Re | MND = 6
Re        1.43124096156539   10.17496423702840    5.64615607112130
Br       -0.10859424453035   10.24052928477817    3.58774794505467
N         3.00015012468333    9.98985607615372    4.17448528741342
N         1.52843610795162    8.07232447687833    5.24525765676365
N         0.84843274817290    7.36266027217585    8.32611660110810
H         0.00678121253643    7.90332071120682    8.19929201434984
O         2.54427466338777    6.24834628918514    7.32663988691967
O         2.06458615739543    9.11416459233728   11.22458065182469
O         0.90475827311707    9.72182067825011    9.41424055751577
H         0.96995876471906   10.61251518271111    9.79439327996294
C         2.69781725909401   10.01947298998988    7.10826730313946
O         3.47112204694214    9.91008137555020    7.94639583645772
C        -0.16690286779924   10.12102769947998    6.75686222979050
O        -1.16372403850346   10.03674642203089    7.31846903460220
C         1.41624649988162   12.12761315563879    5.70362064369340
O         1.40002677553846   13.27057284451319    5.65008997303983
C         0.77521366134074    7.05127640843072    5.91590914811432
H         0.79484387887682    6.10490537525307    5.36201036907323
H        -0.25517228370863    7.38285239251273    6.05953956170829
C         1.48783342676646    6.83382772513903    7.26892668945869
C         1.45828710549221    7.42073150437028    9.63004017479687
H         2.47215852398288    7.01549720640787    9.55019861507736
H         0.90591412311086    6.80634257000137   10.35163177108942
C         1.53381189879641    8.83208994217569   10.18997002880015
C         3.68686462241200   10.97416430334621    3.60532440542019
H         3.53732850444245   11.96605073647115    4.01233242747547
C         4.54995569171086   10.77361293405124    2.54268758708040
H         5.07576977887764   11.61162205862304    2.11507575054585
C         4.71852831327173    9.48860667033526    2.04203676254799
H         5.38167765467711    9.30155698130887    1.21193446694433
C         4.01253921130136    8.45687305571313    2.62728491966327
H         4.10068282549551    7.44152406740373    2.27394378460940
C         3.15595132960170    8.74055814856552    3.69123979019355
C         2.35529530084964    7.72391944419644    4.32958488903187
H         2.45720598858831    6.69157218787860    4.00481388560317

