63
CSD_code = SAYGOO | q = 0 | S = 0 | Stoichiometry = C32H24N2P2PdS2 | MND = 4
Pd        4.11485244783345    5.78808964511234    3.19510109465007
S         1.89787953161316    5.60750166782705    4.19233609152081
S         4.16666910161006    8.21331794620065    2.98395082954265
P         4.18053006239420    3.56442821186180    3.23078016081647
P         6.17519409903435    5.79751011095619    2.36778628069498
N         3.89733753641210    5.89747811143620    6.15296757344893
N         3.02303917741521    7.04969454006136    0.69044991693379
C         3.06790979671927    5.81124167833651    5.34406366090281
C         3.46687594770613    7.52702303888418    1.65134132587622
C         5.85306860985367    3.06201820130797    2.69197772166115
C         6.72109406548335    4.05830606277407    2.23888602710716
C         7.97935071472252    3.71446350319638    1.75871569086516
C         8.37021262097574    2.38787482087334    1.73633040705177
C         7.51345104148527    1.39942527704550    2.19924353441215
C         6.25725037576933    1.73212434917859    2.67297663478656
C         2.56391947923015    3.68566565657407    1.03456341782925
C         1.74091101762306    3.18625081536992    0.04118834441504
C         1.44000889710088    1.83402209212902    0.00784665537465
C         1.96071067513489    0.97645219667174    0.96554094475482
C         2.78750343256214    1.46332251049460    1.96109752232456
C         3.08742737674958    2.82237999333569    1.99500431727203
C         2.67228157771601    2.27808537063499    5.18624848151732
C         2.47607152535030    1.80307912876906    6.46979227950650
C         3.51725708326775    1.81768139099208    7.38402373886167
C         4.76091270897988    2.31182054173708    7.02189939203147
C         4.96902154750668    2.78707998919287    5.74198092300953
C         3.92807846178639    2.75064348431179    4.81579232167857
C         6.97616937982570    6.71620797857121    4.80357454188391
C         7.84769447877524    7.27085940655666    5.72303097479582
C         9.11477909405984    7.66572187764612    5.32337791378396
C         9.51630059975586    7.50539304025223    4.00581856734311
C         8.65552151990096    6.94802859880422    3.07797060885139
C         7.38195229737960    6.55585513030375    3.47970535353706
C         5.93192479178694    5.70057412175415   -0.36343279721753
C         5.90378840347932    6.24631362419699   -1.63165208870658
C         6.28288879581117    7.56538555876333   -1.82692675077522
C         6.68444250701589    8.34478065191803   -0.75403119026429
C         6.71479504112592    7.80969018049974    0.52041932526277
C         6.35856265144865    6.47774044869212    0.71212422313257
H         8.64535192842111    4.48766993333856    1.40313802738646
H         9.34741098633012    2.12175767511763    1.36224080920714
H         7.82703155928100    0.36634612121107    2.18789366246087
H         5.58898247024657    0.96474445029434    3.03686834441466
H         2.79145155909483    4.75644192474406    1.07549703200270
H         1.33085546813289    3.85635299890489   -0.69877988989044
H         0.79127435418420    1.44451041161729   -0.76269939235159
H         1.71735607928645   -0.07568677280939    0.93869086607894
H         3.18434420638122    0.79882834480135    2.71634391132926
H         1.85724954945237    2.30029344374497    4.47518484086793
H         1.50351360361477    1.43589151985159    6.76213274372887
H         3.35415665855849    1.45718178732262    8.38872364495918
H         5.56294181074606    2.34158597492701    7.74395948296838
H         5.92804090168772    3.19900341470303    5.45088299158753
H         5.96630000288800    6.41864257984134    5.10656909701913
H         7.53272093941883    7.40232488273265    6.74690184574287
H         9.79225385542747    8.10797154407537    6.03875245526323
H        10.50257770666117    7.82143879434481    3.69869692039396
H         8.96099206556933    6.83425582615828    2.04667639327781
H         5.61560397780975    4.67825615188143   -0.19120276661532
H         5.57010507883391    5.64920518261902   -2.46701335372847
H         6.24923217458745    7.99285963011919   -2.81788194669452
H         6.95871197168931    9.37785448769414   -0.90765778033894
H         6.99430261940539    8.41993873962780    1.36881809043110

