53
CSD_code = SAYHOR | q = 0 | S = 0 | Stoichiometry = C19H24BrMoN3O5 | MND = 8
Mo        3.80908796717078    5.75457399355295    4.14597644012003
Br        4.14489576906456    5.10557386601761    6.65870342266502
N         5.62446367263415    6.74602053413115    4.38296112836660
N         5.21207216629205    4.27312808775443    3.86838223196508
N         4.42022848326758    1.39940169105042    1.88992146586946
H         3.67140080031084    1.07323986968750    2.47987731179226
C         2.61250438401648    7.16296483386295    4.76233472636210
O         1.89695489872239    7.99010003958158    5.10975854139614
C         2.21649669570141    4.63608126630768    4.13960615887195
O         1.27617410268788    3.97444844791434    4.10492633168617
O         6.03780470453920    2.94701021824776    1.59166773802923
O         2.38642422358502    2.04309663297318    0.46747307779161
H         1.59786982230584    2.26982285934591   -0.05108711946594
O         2.96203875119795    0.88026096458490   -1.34832370511389
C         3.49534954595320    7.42330796864636    2.54667002160893
H         2.44769111531211    7.65194968217957    2.36658238563290
H         4.12793910237232    8.30799004311562    2.53198322637910
C         4.01277733453843    6.24732778924469    1.95535717881305
C         3.12103524056132    5.14808580057425    2.00776399934710
H         3.45168136924584    4.21737178750592    1.55638092312956
H         2.07081924745480    5.35691947495993    1.81583305775283
C         5.33397633178865    6.19658185230741    1.24601151849771
H         5.16537347627288    6.43821849536844    0.19358286154661
H         5.78395837955441    5.20447099804402    1.28656188432365
H         6.03785864517068    6.92882488128847    1.64374005405396
C         5.80599296532695    8.00674123491233    4.78532977428680
H         4.90669020782460    8.57750808660691    4.98275274320980
C         7.04598035361292    8.57901951607765    4.95554811144903
H         7.12638392212027    9.60396210342844    5.27953327914204
C         8.19116760606385    7.81696978491499    4.70275212505629
H         9.17359652160829    8.24745891563997    4.81763059880541
C         8.02971371288487    6.50706957271717    4.32586018014989
H         8.87402562182039    5.86120822049477    4.14196609392765
C         6.73256147081070    5.98942795522576    4.18529305549621
C         6.45878154932267    4.62282896692306    3.91779597814189
H         7.26958273818048    3.90192727637341    3.85782292081350
C         4.94220927555320    2.87139684328909    3.73642125735428
H         3.90967401172434    2.67370303343514    4.03034330324975
H         5.61634023804124    2.27987418212039    4.37433148650385
C         5.19194516748388    2.42527898593302    2.28859034712099
C         4.46319608831158    0.88696281280563    0.54202340464583
H         5.30207640306246    1.39508777125018    0.04683723123531
C         3.20381145919666    1.25111534312701   -0.23413101044028
C         4.70161762481865   -0.63648973994773    0.48526318434946
H         4.66130621112513   -0.91147636418374   -0.57296515379651
C         6.07888817788124   -0.97640599814872    1.04471727837590
H         6.14954614292609   -0.68261583679295    2.08983754796037
H         6.85891033812639   -0.46174084892373    0.48960538521536
H         6.25603572365911   -2.04639111874858    0.97657652194189
C         3.60714178582931   -1.39902910202538    1.22973184839783
H         3.73218430919038   -2.46706736635041    1.07166971466292
H         2.62155396067255   -1.11770886579981    0.86540929878831
H         3.65621018269927   -1.21278744226527    2.30060863264732

