53
CSD_code = SAYHIL | q = 0 | S = 0 | Stoichiometry = C19H24ClMoN3O5 | MND = 8
Mo        1.02429993640102   11.55258563086251   19.87429661301303
Cl        0.59040546922140   10.97837513019851   17.51097614781412
N        -0.79737281353088   12.53412251733225   19.68270833461636
N        -0.35761183230623   10.05569775467968   20.16650734555980
N         0.39090846871963    7.20398850580299   22.19452482669281
H         1.16924984715597    6.88627489423928   21.63940060152375
C         2.61596453440624   10.44440531605943   19.74964970108125
O         3.56091108911932    9.79292033399987   19.69393030587685
C         2.18578174191346   12.94990604059458   19.17787009431982
O         2.88424162249069   13.76040425857173   18.76658547140390
O        -1.25806124523628    8.72994255251139   22.41500707718072
O         2.36725990797760    7.85190776269195   23.69783907320165
H         3.13283897561017    8.08010334394995   24.24917262036574
O         1.72509352814979    6.68074449193427   25.48553333570496
C         1.76518369610023   10.91573148046343   21.99641478745184
H         1.44757385210449    9.98177596027580   22.44984732820257
H         2.82355355879637   11.11761278892902   22.14297478031299
C         0.88098270489788   12.01499503430645   22.09013225174688
C         1.37300607442111   13.19952155891459   21.50155179713279
H         2.42839922569639   13.42420606918779   21.63159816077009
H         0.74043603625490   14.08183972319828   21.55413364136810
C        -0.43150089134447   11.94979319836670   22.81730147725657
H        -0.88210109160198   10.95915578243339   22.76418717407334
H        -1.14003216881518   12.68671083508019   22.43826966927287
H        -0.25053934553362   12.17478592426969   23.87132810523559
C        -0.98746604250398   13.79880226261841   19.30265527224966
H        -0.09348883360159   14.39535138510510   19.17260155190547
C        -2.23045479441538   14.34783528246078   19.07758061187992
H        -2.31829310784254   15.37842797953670   18.77333265479275
C        -3.36843863552045   13.55438751306593   19.24912837656072
H        -4.35381857335616   13.96411888116155   19.09002090661523
C        -3.19469442657283   12.23976480403332   19.60586929877825
H        -4.03265311529966   11.57124364611336   19.72911534600018
C        -1.89472031338020   11.74914205213341   19.80240450659164
C        -1.60447649508240   10.38260050950487   20.05855499798289
H        -2.40530974527876    9.64718265084103   20.07617884424021
C        -0.07157380344254    8.65967768095091   20.31773976474551
H         0.97487446886908    8.47882394014457   20.06948836462509
H        -0.70864356859498    8.05355020305405   19.65599354455673
C        -0.37691515026971    8.21787960502854   21.75638477577719
C         0.29351617875143    6.69857813521901   23.54220800146927
H        -0.55937025815567    7.21732802283343   24.00152840837403
C         1.52386929288559    7.05727186453166   24.36500395208769
C         0.03713515509339    5.17791375011857   23.59869854999642
H         0.02753027140797    4.90961367124502   24.65932954480883
C         1.15551947601367    4.39915548893065   22.90877196206157
H         1.00610650198303    3.33296180914313   23.05807022475104
H         2.12549892854131    4.66494816418923   23.32306657981100
H         1.16342494325637    4.58832069423196   21.83734985494883
C        -1.31741488301548    4.84852868770745   22.98058565170801
H        -1.33596462223496    5.13084372217249   21.93014460671014
H        -2.11499759000647    5.38025269008056   23.49296904106165
H        -1.51195213911306    3.78178801492005   23.05278408362267

