41
CSD_code = SAYHUV | q = 0 | S = 0 | Stoichiometry = C11H18FeO9P2 | MND = 5
Fe        2.00216351677216    4.61718990268320   12.58624763984849
C         0.77170027211326    3.54222243168333   13.28450019890491
O        -0.06185901158608    2.87343812792956   13.70278669953117
C         3.30156108670511    3.58862652353079   13.17967167567734
O         4.15597022497010    2.93296981408414   13.56236565168122
C         1.12460949060392    5.93633417339924   11.82081797006985
C         0.53408000565238    6.94819291009771   11.21699918499930
C        -0.91039998853741    7.10013932108608   11.18182361838566
O        -1.49780755622437    8.01078551262273   10.64701252304139
P         2.42862820258734    3.99539762541244   10.54912155133638
O         1.28090922061147    3.30527094409522    9.67075296529162
C        -0.02916559932007    3.83828906961271    9.58328453571991
O         3.54570155639751    2.85129535899422   10.43964063421404
C         3.88154282170216    2.25393818023378    9.18695679357686
O         2.87791824449558    5.08866879951043    9.42487583851347
C         3.81396410023124    6.10761324344710    9.71773452664420
P         2.64627093653237    6.21739836778908   13.85131989994512
O         1.55781161173138    7.17898696108807   14.56380139975729
C         0.20565887715878    6.83317313443574   14.79646915799038
O         3.72419541050427    5.93976462613249   15.02412983415510
C         4.25782798880618    7.18197622370028   15.33896196639767
O         3.64844519190599    7.48409885621400   13.36026519122186
C         3.24157212989302    8.44841142915621   12.57057299859166
H         1.08789029294518    7.73224921319642   10.71118182764509
H        -1.45877364338169    6.29399780008850   11.70796333570379
H        -0.62866806770777    3.09766542647307    9.05453989542639
H        -0.03141518344310    4.77889938111508    9.03042551601981
H        -0.44081930259646    4.00610586140697   10.58191242138508
H         4.90836641153835    1.89992606520396    9.27502262125764
H         3.80252595670264    2.97821616667668    8.37477205861373
H         3.21584073979102    1.41490913127210    8.98538374331730
H         3.65495464486818    6.90465231207668    8.99113011187907
H         4.83537636490139    5.73057390403916    9.63163501394062
H         3.66126378269194    6.49473091919199   10.73119619173027
H        -0.42685968752141    7.60658661319717   14.35718010463655
H         0.03360371229046    6.78498645352739   15.87280444479481
H        -0.03159306273227    5.86587374646935   14.34283425804049
H         5.32310595808256    7.16487957969499   15.50145131243447
H         3.65399710099939    7.82735121226839   15.95686835114775
H         4.01912359249267    8.99254316741006   12.05941448409319
H         2.28008165637385    8.91117150975071   12.72947185242908

