102
CSD_code = SAYJEJ | q = 0 | S = 0 | Stoichiometry = C47H46MoN4P4 | MND = 6
Mo        9.22057003344749    2.74091474168346    3.08332057043900
P         9.17295029682719    0.39275819425396    2.92703958488900
P         8.23075461033072    2.51500762917690    1.00688060902582
P         9.39465346672128    4.98794481463909    2.35144982115841
P        10.30182837980595    2.89059160401876    5.18214275271886
N        10.86049411006957    2.58138636781213    2.23562137920465
N        11.84972244713119    2.47173012631196    1.71800243826782
N         7.60662629883582    2.89126075440578    3.98045607884622
N         6.62941858508913    2.96770298129626    4.52359013913983
C        10.41996669429964   -0.71872263943377    3.65151808133629
C        11.75497773740822   -0.56697491947070    3.28173193199265
H        12.03984311364031    0.18409485169008    2.55848399367824
C        12.73111377426382   -1.36600100675401    3.84545503275614
H        13.76033034204623   -1.24709384266299    3.53980339210059
C        12.39377227550139   -2.30783705391065    4.80349827823025
H        13.15790843574138   -2.93115922041459    5.24475973796488
C        11.07403738562769   -2.44288853231860    5.20000295185792
H        10.80650072352722   -3.16868309027125    5.95509831702039
C        10.09115354330912   -1.65535923156391    4.62832896187291
H         9.06086748695361   -1.77414433592628    4.93652992026412
C         7.63321025512621   -0.50716571612645    3.29202331482666
C         7.00022513641141   -0.17314720159878    4.48873964797381
H         7.46287154616888    0.55681205346301    5.13961525280647
C         5.79805959091941   -0.75614524331332    4.84104716833869
H         5.31836160203568   -0.48219655265682    5.76923373713718
C         5.20762111674385   -1.68236690018438    3.99684121781874
H         4.26240571112078   -2.13332516439578    4.26149861630807
C         5.83454109332678   -2.03145118147335    2.81255667163429
H         5.38047549954906   -2.75999996245493    2.15578172681385
C         7.04174144270142   -1.45349726597841    2.46055122131734
H         7.51473112146180   -1.75119278439572    1.53634352313052
C         9.45045718562271    0.04771823728613    1.12862731467680
H        10.47177633410425    0.38616532900422    0.92039217900364
H         9.41519304072447   -1.02785597493507    0.92268873632553
C         8.46132424621174    0.83240614944473    0.27317536648668
H         7.47888951712773    0.34557212439181    0.27698412811315
H         8.80242278715026    0.91562333509105   -0.76586700352755
C         6.45785269714253    2.77691230196421    0.73255385901230
C         5.63380098555902    2.03913781893743    1.58229412248087
H         6.08645716475477    1.35398808811647    2.28951198202770
C         4.26170755373543    2.17882500688734    1.53060676759952
H         3.63669423262853    1.60234463014728    2.19672728687039
C         3.69420305554715    3.06639717144827    0.62972874704940
H         2.62144111510569    3.18591953513323    0.58904265037210
C         4.50443092102276    3.80178903765253   -0.21842251589767
H         4.06258542964918    4.49179725287778   -0.92335113384967
C         5.88091821084405    3.66238247682580   -0.17116427218600
H         6.49158989848979    4.24222619121472   -0.84823666730266
C         9.06150077591287    3.67747396911337   -0.13960550891833
H        10.09883528809192    3.32980919298868   -0.23002842766772
H         8.61114924223749    3.68072699455952   -1.13907108260971
C         8.98749835212261    5.04653691481497    0.52724326202539
H         7.95039156769104    5.40346513270617    0.49129521908991
H         9.61804144291061    5.79124658502882    0.02802262812165
C         8.33141438557701    6.39015903585199    2.82539581545895
C         7.00899701104876    6.07477336047919    3.12500915963235
H         6.68815334354831    5.04112796008835    3.08855751708654
C         6.10762093008548    7.06808820780798    3.45680261137194
H         5.08563977796980    6.81008163757215    3.69367921516389
C         6.51927673019415    8.39068296605341    3.48625152149388
H         5.82041013195012    9.16991519113788    3.75403284541832
C         7.82615648559336    8.71402952468478    3.16129529659284
H         8.14408237758249    9.74703203473616    3.16632350700037
C         8.73017586484213    7.72207781152012    2.82454925138503
H         9.74406058165325    7.98679137600377    2.55990621996510
C        11.05871549428923    5.70778153299504    2.40192988267275
C        11.99813972178189    5.44686699396778    1.40776838269159
H        11.71699611234109    4.90003140461003    0.51890184548468
C        13.30478331511911    5.87968290227518    1.55093272030815
H        14.02599905202032    5.66646899868521    0.77503685971659
C        13.69026928237965    6.57582936573665    2.68365948028435
H        14.71131938197496    6.91172253973360    2.79237279356464
C        12.76311099961999    6.83622618094131    3.68089010939999
H        13.05657556260330    7.37383737497211    4.57119203905070
C        11.46013202049878    6.39682617612693    3.54657590409294
H        10.74044150160922    6.58732570662881    4.33007509347716
C        10.34851699926625    4.50404815124849    6.03371472831189
C         9.18970193843441    5.27167668700409    5.96565316955010
H         8.33389678583439    4.89581538689868    5.41781400503682
C         9.13108596320366    6.51049875513643    6.57606347461572
H         8.22949747648299    7.10266631266733    6.50833821195046
C        10.23639978147511    6.99440056691243    7.25873983240820
H        10.20005411706897    7.96820404256269    7.72542283784581
C        11.38730347948648    6.22832817469250    7.34222362842682
H        12.24693400148234    6.60313123935641    7.87981688017624
C        11.44553389710859    4.98382166672081    6.73871469375786
H        12.34730414586395    4.39096179841925    6.80603726996375
C        12.04275175268327    2.39647869771284    5.20689562435123
C        12.91715106124714    3.18270551498752    4.45796087376697
H        12.53627575992462    4.06833505974626    3.96737277878962
C        14.25203341766689    2.84722289320063    4.35584082906485
H        14.91735597493943    3.46491698101920    3.77015707900706
C        14.73094154355610    1.71855327037898    5.00254900202150
H        15.77569588766117    1.45310657776980    4.92673545861780
C        13.86804248130103    0.93072942857671    5.74444260098611
H        14.23867457380639    0.05003798270466    6.24973593726736
C        12.52675704231830    1.25910892052809    5.84178103501361
H        11.86590243755455    0.62185288529027    6.41081832427969
C         9.58329886911203    1.92361411142056    6.56137212567408
H         9.55770934216536    0.86754293552117    6.28469604733419
H         8.56276903320102    2.28300257416280    6.71370984194126
H        10.15814727242847    2.06762132860570    7.47826193035288

