52
CSD_code = SAYKOU | q = 0 | S = 0 | Stoichiometry = C22H24N2PReS2 | MND = 5
Re        0.64121829813012    1.87874127206518    1.52684634360373
S        -1.15275144714248    2.91964105941822    2.66071398255474
S         2.25553246677061    2.89432445992941    0.12129766057180
P         2.06719292689923    2.17742172423515    3.41769289286802
N         0.63404985436767    0.15247471312172    1.55386009074961
N        -0.67934965882925    2.15807090707202   -0.22699602173103
H        -0.54739643368670    1.33957662870409   -0.83144020932158
C        -2.33749423769673    3.18785563040112    1.28564314675429
H        -3.33902858950377    3.05822449593809    1.69692460120004
H        -2.23195131722775    4.22389361832697    0.95233914619574
C        -2.09996602211541    2.19994686450231    0.15579197515040
H        -2.72550006463817    2.45978483721307   -0.71184842884470
H        -2.36600733476625    1.19695818742890    0.50652047737154
C        -0.22916402940681    3.32983089424290   -0.98466873576693
H        -0.32462998962524    4.22458174040462   -0.35783735948774
H        -0.85199983713496    3.47521374781615   -1.88189990063772
C         1.22844313672637    3.14227450578292   -1.37364102790466
H         1.61578416587497    4.02677097929230   -1.88074604323501
H         1.35331607158708    2.27095064665640   -2.02203569156246
C         2.40118212429453    3.94553321577751    3.60535127706433
C         1.46687540964443    4.75189619346822    4.25116468693718
H         0.58841532217631    4.29946675812482    4.69234366246182
C         1.66170887451113    6.11981249821478    4.30654658523311
H         0.93763904616306    6.74576007577237    4.80792334112297
C         2.77728870016364    6.68757065341527    3.71077555769816
H         2.92462849118112    7.75712065754306    3.75235547893606
C         3.69671023346053    5.88793437327608    3.05010921125780
H         4.55721856165255    6.33365170529672    2.57268052193140
C         3.51001998089924    4.51889358515602    2.98926543165740
H         4.20871938102094    3.88895412065590    2.45608056413797
C         3.69841798046135    1.38113920039852    3.36191055711887
C         3.90794202203227    0.37008421009737    2.43101033920299
H         3.09773566043986    0.11299117397716    1.75705576891792
C         5.13288187733712   -0.27169738794152    2.38132576881673
H         5.30068479589497   -1.05412282846384    1.65671341940168
C         6.14317212074091    0.09095636515553    3.25723589708543
H         7.10084678182025   -0.40705350413227    3.21492562591469
C         5.93050124249536    1.09428969392684    4.19010031339459
H         6.71982300368942    1.37461423671393    4.87255561779247
C         4.70936277446200    1.73968780462847    4.24836820356692
H         4.54375223760841    2.52535592868022    4.97235447284095
C         1.40517412004676    1.62865527329765    5.01756009251086
C         0.50100409405407    0.57105096986652    4.99586667369737
H         0.20482767767539    0.16707863093327    4.03305396776187
C        -0.00767663511032    0.07937725425951    6.18406153713583
H        -0.71307501610514   -0.73772063172458    6.17056001022894
C         0.38263573108425    0.63931101158670    7.39033863092858
H        -0.01913473901248    0.25950899012256    8.31840821798592
C         1.28417783871962    1.69141306202335    7.41094503524350
H         1.58348945052324    2.12900592343545    8.35244921291125
C         1.80113502911740    2.18757825688428    6.22775542968466
H         2.49611786828129    3.01586561702248    6.24593199089422

