80
CSD_code = SAYMOX | q = 0 | S = 0 | Stoichiometry = C39H34IO3P2Rh | MND = 6
C        10.39305538574967   13.70173764781504   16.02089255049748
C        11.66279376918236   14.07132498472002   16.44787635425848
H        11.79741620748695   14.97717310822222   17.02125984935710
C        10.25799568564299   12.53417217525715   15.26803295927949
C        12.75928747237880   13.28405037263046   16.14000927399189
H        13.74104379896066   13.58515385161442   16.47356467473681
C        11.34853966713477   11.73334125494694   14.97370149099664
H        11.20267354381312   10.82604336429015   14.40691676880987
C        12.60417467762448   12.11332901749110   15.41638705028986
H        13.46136593178693   11.49730652856336   15.19142819597299
C         7.07227348216914   12.86501936208116   13.78709084871619
C         6.40554246917461   13.38978541978329   12.69237022639168
H         5.32865983484177   13.47163595236509   12.70376875141689
C         8.46461042363537   12.76780758667373   13.75744541660062
C         7.12897491817869   13.81618120276531   11.58984337772522
H         6.61065799640782   14.22437405688991   10.73572918532440
C         9.19378482842218   13.20451938092560   12.66587369457415
H        10.27213947443198   13.13828466968675   12.66585548665712
C         8.51055880204332   13.73156585728701   11.58137416305491
H         9.06734512382317   14.07633413231781   10.72333367321146
C         9.43338982143218   15.89519788628500   17.51861612482013
C        10.01627909089514   15.49718959285863   18.72111196043594
H        10.14944860373824   14.44353072846644   18.92720528159163
C         9.21100139084133   17.24606719016727   17.28175352098460
H         8.72721083982146   17.56457686708051   16.36916619957011
C        10.40089747351487   16.43966419999980   19.65448355520800
H        10.84972077366197   16.12303829755602   20.58448134092453
C         9.59833596032417   18.18699372539012   18.22103246665640
H         9.42287998812503   19.23555289195410   18.02942256048726
C        10.19533083474248   17.78794149715961   19.40415842855344
H        10.48918279979250   18.52460648517517   20.13729566364670
C         8.66842435583875   15.58281027843581   14.83786594519737
C         9.80073853918156   16.02282938688037   14.15749331674202
H        10.78550270490412   15.75376106502120   14.51423833420590
C         7.40887021828070   15.94734745281467   14.37995565579297
H         6.53084973081181   15.62912741575693   14.92358142875545
C         9.66668547286975   16.80622446192866   13.02712041085011
H        10.54865718044408   17.14496811037730   12.50325169614098
C         7.28012935256871   16.73424885931816   13.24940149874102
H         6.29730382457388   17.01549318278600   12.90158745384087
C         8.40755989561799   17.16084396085370   12.56949408940703
H         8.30804131392774   17.77414884846497   11.68621514212971
C         6.53348097057402   10.52015540440348   15.25966288419459
C         6.98455268742529    9.90084856116380   14.09745967308439
H         7.25684536208969   10.49093700603035   13.23415149828207
C         6.16763375832114    9.73371127783328   16.34791032508599
H         5.80167878428786   10.19860210782245   17.24967160746155
C         7.07856585198798    8.52212740788275   14.03511103077735
H         7.43074844485620    8.05285497504750   13.12747655095517
C         6.25858361976251    8.35561539324457   16.27867316147352
H         5.96776493288460    7.75839267001358   17.12983028091724
C         6.71919170914760    7.74571559248643   15.12404914696975
H         6.79447184264244    6.66963429149211   15.06956303959957
C         4.59041467915318   12.57644933266748   14.97480001109437
C         4.02447738824082   13.82012921299990   15.24217434374605
H         4.60873141532035   14.58391630935520   15.74209030515097
C         3.82339755363944   11.58613711697470   14.37368438369395
H         4.25284338682685   10.61522548628669   14.17155749039349
C         2.70704773884316   14.07043348950962   14.90982222575007
H         2.27063405307839   15.03374607876279   15.12851285006785
C         2.50271075453885   11.84119450250724   14.04714995898038
H         1.90666863065991   11.06517920117647   13.58944601036993
C         1.94440527155750   13.08014270536424   14.31140646939108
H         0.91155129404921   13.27151656282982   14.06041333854538
C         6.61680621290507   15.68616211299970   18.47124373215291
C         6.33202807184321   16.83679876908294   19.40287317932927
H         7.16098184973952   16.96516580643499   20.09338599214380
H         5.43445702606421   16.59824432477838   19.97135360141744
H         6.16015628035853   17.74344120103969   18.82987972611474
C         8.20125927911411   11.92167664457705   17.91885788684907
H         9.09282817957597   12.36447876665415   18.37206848692704
H         8.51058355497386   11.22751605152977   17.13880445180058
H         7.66681955622621   11.37021709954247   18.69142252600260
O         8.98682992421706   12.17436438947731   14.87199191708174
O         6.18567846774745   15.69589572346250   17.29600619322485
O         7.29246517227363   14.71348608054747   18.90033306669090
P         6.35375362290210   12.33584625338197   15.37939767412693
P         8.83637878208113   14.60615860378407   16.37544145303991
Rh        7.01789585156211   13.49616448507951   17.22792262664048
I         4.86024437972033   12.61941669075994   18.47161483391699

