44
CSD_code = SAYNOV | q = 0 | S = 0 | Stoichiometry = C18H16N6NiO3 | MND = 6
Ni        5.60933618700249    0.46810760469322    3.10642226952212
C         4.19870649972686    0.77729686240653    0.46386406243694
C         3.26414141130696    1.10212393294825   -0.51800020890833
C         2.14939877348199    1.83812367794324   -0.16010111634740
C         1.99939553460047    2.21788403457579    1.16433916346618
C         2.98090335207888    1.85529618163531    2.07576091614380
C         5.37579193777648   -0.01879481519873    0.15976321569799
N         4.05687149290426    1.16808112887006    1.73599620832211
N         5.96484843706311   -0.62520112663305    1.10948147290737
O         7.05120238523540   -1.37234548781407    0.84070424049028
C         6.82257642980715   -1.81557750001367    4.19241988327399
C         7.68875218411123   -2.81670464678613    4.65032589458747
C         9.04889191904524   -2.60405435290094    4.59420959661501
C         9.52306252423030   -1.40141433261592    4.08369848746452
C         8.60557376005895   -0.45597430250595    3.65729279847837
C         5.39813925533550   -1.93456071253779    4.19568721742520
N         7.29821531079400   -0.64598745636757    3.71381499726285
N         4.70529568210998   -0.94783998921615    3.69785886653653
O         3.45710804432633   -0.91784562255128    3.67672461905817
C         5.83096234028847    2.81503449373508    4.68267705540055
C         5.78576193852561    3.82011057277474    5.65916831880655
C         5.00127187468698    3.63552202533717    6.77658262754623
C         4.27004103618912    2.45930526199301    6.90190848214669
C         4.36623725209317    1.51130395078878    5.89702484464294
C         6.60059487476973    2.91711779431751    3.48281595769483
N         5.12237464326894    1.67351321259406    4.82319374068993
N         6.56322922338284    1.92386656008010    2.63595501836446
O         7.19212040027873    1.93607190326024    1.55078170812764
H         3.40984876120862    0.77128564964295   -1.53505304476967
H         1.40986982004985    2.10777662905751   -0.89974865143601
H         1.14373283125436    2.79066811416938    1.48473268682804
H         2.89949344708414    2.13261938132869    3.11807674006617
H         5.71435718398496   -0.07779708724035   -0.87845200758108
H         7.28125598971398   -3.73954706444731    5.03300349185677
H         9.73761794352451   -3.36242756712384    4.93785314549042
H        10.58085860598876   -1.20337815515735    4.01710718080637
H         8.94073647601004    0.48786954243092    3.24733317806829
H         4.90234342581315   -2.81139309412990    4.59871681640618
H         6.36344725973004    4.72121321676738    5.52268926344612
H         4.95179029626646    4.39506100807025    7.54354963841873
H         3.64099026425038    2.28345191184266    7.75972887080300
H         3.80260061686710    0.58878021031136    5.95246602643987
H         7.19290377170669    3.80129484016521    3.26926424903330
H         7.35224860206670   -1.25193638849544   -0.08293792172579

