73
CSD_code = SAYNEO | q = 0 | S = 0 | Stoichiometry = C32H30CdCl2N4S4 | MND = 6
C         4.31269483091787    5.71443861946596   13.34462396884423
H         4.52536733536753    5.27662540441371   14.31331989099080
C         5.13624597772479    5.48346192368544   12.25359449966005
H         6.01090785006350    4.85976723210410   12.35179636341540
C         4.81439057793488    6.08436043159270   11.04702279443116
H         5.43736340676345    5.94391119444100   10.17573030253094
C         3.67804313599833    6.86975936270788   10.97382067411810
H         3.40956680508997    7.36360966515650   10.05413806357064
C         2.90057493564351    7.03555445166269   12.11875687067672
C         1.67905819570830    7.86092645293905   12.10519187052073
C         0.87749632942017    7.95530520515159   10.96887445077534
H         1.12241951749012    7.39890969733621   10.07883485363231
C        -0.25167916994841    8.75310857095205   11.01359426950120
H        -0.89250946616884    8.84072572325351   10.14835063263740
C        -0.54332696288344    9.43515818658917   12.18400040895332
H        -1.41068528455968   10.07217213612109   12.25876514728335
C         0.30050930229196    9.26827761781596   13.27110973369795
H         0.11026936582177    9.76942013503526   14.21330165402347
C         3.31360402219453   10.28346293679118   15.61660860974535
C         2.82555319031261   12.58766136556275   16.10180442554264
H         1.86334717388822   12.76522294195822   15.62791242979933
C         2.87483041090019   12.69789409372782   17.59766911279096
H         3.51827154502669   12.00848449356628   18.12062892714076
H         1.95821163206046   12.92112055492005   18.11912212195382
C         3.51688336200310   13.74956766403583   16.74918471823025
H         3.05099740012034   14.72063012596659   16.67746906855686
H         4.59550670572736   13.77815210770303   16.72277902995861
C         4.57341414021284   11.97664219386434   14.43907989196676
H         5.55282127877691   11.54813574141304   14.67210936480154
H         4.64404943793040   13.06654559038753   14.45116444756173
C         4.12171230070381   11.49796720373326   13.07984599074672
C         4.94820952251573   10.71694963011567   12.28345707325824
H         5.93873691833629   10.46455922864231   12.62886231641907
C         4.51134340925934   10.23946565368995   11.06182760813146
H         5.15616455780030    9.62853656285148   10.44990883170460
C         3.23109159926125   10.54781266821216   10.63472947160982
C         2.39036056037167   11.32787510083482   11.40902148713948
H         1.39567625816119   11.56337103753847   11.06324415793915
C         2.84180934927362   11.79654929727620   12.62891681408575
H         2.18436256975018   12.40004582643436   13.23634798770990
C         1.22905865091667    4.76033037554927   15.68595637224792
C         1.65017765404965    2.46982358779949   16.29589747538652
H         2.61061067012678    2.23077581327891   15.84598197768209
C         1.57887756889173    2.44658551634411   17.79470651828533
H         0.95476868023866    3.18687185098625   18.26936058907486
H         2.48074752801903    2.22096285656998   18.34030946052727
C         0.90960302198553    1.37156033885928   16.99821717044651
H         1.34007879212025    0.38175932387490   16.98809135182283
H        -0.16894293845127    1.38081271490343   16.95730643199681
C        -0.05483677597318    3.04169249201977   14.57668405720095
H        -1.02987268259710    3.49243584684889   14.78594109893214
H        -0.14180449486609    1.95403567080975   14.63127328289090
C         0.40827335133138    3.45745938669155   13.20057877024164
C        -0.43250019426941    4.14877151534776   12.33900504063072
H        -1.43938761222574    4.38185733289340   12.64881981208409
C         0.01058638439339    4.56362317748477   11.09697117465619
H        -0.64512832707298    5.10592435364792   10.43405388117193
C         1.31104000425458    4.28201978573593   10.71475198269967
C         2.16633812280893    3.59061964452182   11.55447532521027
H         3.17693112348499    3.37483233795803   11.24382986320317
C         1.70864167817546    3.18433779106740   12.79406635261067
H         2.37821500059077    2.65279563023443   13.45329101022644
Cd        2.29188069128746    7.51302741169062   15.31517857902195
Cl        2.67223183380751    9.95587081048665    9.10880707016920
Cl        1.87799600201933    4.79792698550887    9.16406593900368
N         3.22971445504060    6.47091794336686   13.28052904760957
N         1.37784537856704    8.50187451858220   13.23464759737872
N         3.61887939634173   11.58524957520520   15.46357307500743
N         0.89964414851817    3.45919964998504   15.58973200707057
S         1.89507849539642    9.86068670437927   16.44524501299739
S         4.36557768021315    9.10814871390115   14.99739733389606
S         0.21258563255025    5.92309650149637   14.98936776172286
S         2.64362705239580    5.19376981157095   16.51596723989047

