69
CSD_code = SAYYOJ | q = 0 | S = 0 | Stoichiometry = C19H44CuN3Si2 | MND = 2
Cu       12.09400132415438   10.36981112960619    3.59851253828143
Si       13.10514685541149   10.86368274135223    6.51156363935754
Si       14.10126802410648   12.64425862578834    4.26425293455567
N        11.51893396371695    8.34719770450842    1.55320743393642
N         9.76922993159971    9.56570165550309    1.98581319666356
N        13.13658955242227   11.34544257294002    4.85758841354104
C        11.05494640592704    9.36151275822660    2.29041372967381
C        10.43477723258567    7.67424155912659    0.83749103200506
H        10.73502916155916    7.39535051531030   -0.17298726009168
C         9.36922786389508    8.77562950496519    0.82114237001784
H         8.36767930015773    8.36209220945472    0.94361105208618
C         8.91680180476929   10.55843060910870    2.64638964157779
C         7.45565149339068   10.40034238502796    2.21599028999231
H         7.32038583702873   10.55037445318638    1.14924021633424
H         6.85962409912601   11.14780389151800    2.73284253116012
H         7.07088841290941    9.42061897573546    2.49003923982795
C         8.98149882466560   10.34047777189557    4.16349323967514
H         8.69998490055501    9.31936581824108    4.41202484007274
H         8.29791914058423   11.02028465509330    4.66413131915585
H         9.98917048295998   10.52555408188835    4.53418598695097
C         9.41215021586472   11.96723242364301    2.30279959751844
H        10.44802265196520   12.07739470972125    2.61882752030396
H         8.81017569308325   12.71110835233302    2.81680197078327
H         9.35103772221464   12.14924000310687    1.23267257140342
C        12.91209522254260    7.89122539338468    1.56765025785974
C        13.15976125370276    6.84661892397244    0.47560005898773
H        12.55212997241038    5.95680609084956    0.60922508124208
H        14.20263757357372    6.54365688087737    0.51729284878950
H        12.97360422550665    7.26077726414020   -0.51270545952523
C        13.24106179382149    7.29563574281393    2.94061971841389
H        13.07767947238299    8.04548687159562    3.71291735581978
H        14.28092794281557    6.98339768990850    2.97338143482793
H        12.61173643212463    6.43393941706307    3.14975772707288
C        13.82999377825527    9.08750586114982    1.28481068688405
H        13.55731578686264    9.56087821383365    0.34381030156408
H        14.86168185545735    8.75385939968888    1.21845870569619
H        13.75450493716969    9.82545433740469    2.08253449317525
C         9.94391994107934    6.44451996415424    1.60591108152166
H        10.71552445527398    5.68444772878741    1.68168913355181
H         9.08574249179617    6.00960010711940    1.09856820744148
H         9.65050417710595    6.73542653252284    2.61216561388486
C         9.45010379573904    9.60241293372800   -0.46472771499655
H         8.73974757324987   10.42357059003031   -0.45946177700153
H         9.23465942374100    8.97133190018083   -1.32402468098132
H        10.45051565958553   10.01598878674476   -0.57121941825889
C        14.82185783751966   10.81356006199070    7.34616797452037
H        15.49888404085003   10.15572121381551    6.81040478862354
H        14.76042876561682   10.46092817444575    8.37150551858407
H        15.27171439090972   11.80038447095548    7.36338495586000
C        11.98003117499122   11.98161061537171    7.58543843166041
H        12.35585307198784   12.99867727039083    7.60563982245499
H        11.92478819456999   11.62912837605725    8.61122360749266
H        10.96758260343469   12.01622362952861    7.19421486218279
C        12.39223167206787    9.08808961854467    6.64382366920733
H        11.43971788811929    8.99096366127668    6.13171924096361
H        12.23289909788324    8.81806845124798    7.68294668322616
H        13.07164765470522    8.35609537634616    6.21876695458443
C        15.90638767026076   12.10956184857905    3.90449486832486
H        16.39566960256742   11.77853988883326    4.81410727354097
H        16.49279807841911   12.92493118316262    3.49143211579856
H        15.94395134848870   11.28658582894386    3.19686965599832
C        13.37371784927763   13.26547616602021    2.60176224544946
H        13.25142440617964   12.46111468892139    1.88244977705588
H        14.02557816299896   14.00818743349254    2.15296460143548
H        12.40322804624162   13.72946670397825    2.74642027758983
C        14.18063100034370   14.16409068214521    5.41531263520503
H        13.18845390382275   14.55493731915291    5.61704863226372
H        14.76990401357734   14.96579853685696    4.97994709510681
H        14.62983086663162   13.90456906304592    6.36785261184910

