72
CSD_code = SAZCUT | q = 0 | S = 0 | Stoichiometry = C20H47N3SiZn | MND = 4
C         0.08123147036911    4.52030317841440   13.54093877782513
H        -0.43910105971817    4.87046858618041   12.65534249502726
H         1.14633964483024    4.55469559272829   13.33061453224388
H        -0.10864673931875    5.23637196378574   14.33340713675972
C         0.14025183924165    2.47982645774027   15.84736033158568
H        -0.29136997268737    3.20294902030677   16.53284578120605
H         1.21986361004716    2.57391521301392   15.92245972309062
H        -0.12508020618021    1.49000254534978   16.20779165700609
C        -3.28542222546185    3.04524933414229   14.48520293639540
C        -3.58472637064458    2.14762168791005   15.69142533390025
H        -3.77109109136870    1.12868920478747   15.36082247019266
H        -4.46015347772617    2.50548213943461   16.22775744315029
H        -2.73593975890570    2.14088490503632   16.36952339341405
C        -3.00639758816715    4.46993673788556   14.95542989813068
H        -2.18326707560137    4.48266678602462   15.66255223536285
H        -3.88828019386742    4.88103445767797   15.44009904433258
H        -2.74625928109733    5.09720487421559   14.10854792497610
C        -4.49134834982593    3.04783314792850   13.54027684459883
H        -4.28311013490680    3.66869938443717   12.67252952202663
H        -5.37201982219600    3.43733679544918   14.04466545144806
H        -4.70415203009240    2.03780247498017   13.19847862743850
C         0.55067643449220    1.47140174743540   13.04480991426920
H         1.56722110055064    1.88718434872079   12.99146530998694
H         0.62362116929563    0.56245356096564   13.64258699588469
C        -0.28981662618238    2.24248776406538   10.92950554852938
H        -1.19454677560174    2.66036704295447   11.36130879605731
H        -0.50957233266445    1.94877518613899    9.90600343711040
H         0.48187093839428    3.01954107595281   10.92746613638970
C         1.14907704864773    0.26868836254313   11.04694239895236
H         1.59825504603063   -0.34846565337016   11.83243339783931
C         2.26546833990084    1.12103904580763   10.41786272291082
H         1.85106949797751    1.73756048447361    9.61904764540201
H         2.68430948894648    1.78609475973491   11.17613786677525
C         3.37304401708185    0.26238472846573    9.82215738406177
H         3.82823765648102   -0.35683853530447   10.59852347899857
H         4.15200348012794    0.90478461437736    9.40635685091845
C         2.78410947914924   -0.62713619929173    8.73650553958275
H         2.35790769090354   -0.00675877051982    7.94486424674267
H         3.56161561486543   -1.25132474761423    8.29135259886451
C         1.70438080332042   -1.51092287012485    9.34601573123617
H         2.17118921377533   -2.13680466050741   10.10831446968146
H         1.28846876016913   -2.16459311150259    8.57652409069361
C         0.57049122379141   -0.68681395900336    9.98163921650370
H         0.11013295571463   -0.07320409981977    9.19990119657504
C        -0.04177569927667   -2.63624026060073   11.34521845948921
H         0.41560923107213   -3.43174869620911   10.74317183588644
H        -0.89477832078173   -3.05754512852014   11.87324247107177
H         0.67395905611447   -2.29018507190394   12.08523027178733
C        -1.37862117873545   -2.03857463433961    9.48701482946517
H        -1.76516362936640   -1.22079333799510    8.88465968574334
H        -2.22195247378077   -2.54505752493352    9.95330476676734
H        -0.86693839709119   -2.75482407697509    8.83003549480400
C        -3.30780529723020    0.62405111915979   10.66295426877109
H        -3.54490190332386    1.65846426544801   10.92908681493878
H        -2.91575343743013    0.68416905808357    9.64311630393077
C        -4.63542236163237   -0.13841483962831   10.59458764378507
H        -4.48743938398580   -1.16148210423677   10.25099437080536
H        -5.33617702372686    0.34316865416043    9.90508437803111
H        -5.11426260997934   -0.18293403514052   11.57177868290458
C        -1.82076046431972   -1.09286857268414   13.86556015555741
H        -0.91042892462404   -1.68396651644946   14.00115374871717
H        -1.77971165276123   -0.33529484333763   14.65499700803163
C        -3.00880245603718   -2.00925334035290   14.17957920486947
H        -3.95030159651376   -1.46375998309521   14.12920204255459
H        -2.92800243350782   -2.43849191498278   15.18350528561728
H        -3.06946157330369   -2.83671512551483   13.47288988840648
H        -2.38276965106007    1.63759770177604   13.32747207690197
N        -2.14253188217722    2.53241051126776   13.74214210267165
N         0.10146338779851    1.07385414791131   11.70866784370049
N        -0.50801806699633   -1.51972125677699   10.53280159509366
Si       -0.46760601936414    2.75655775269348   14.04940484213173
Zn       -1.89368065003069   -0.18787654889492   11.97504739337338

