50
CSD_code = SAZCON | q = 0 | S = 0 | Stoichiometry = C14H32N2SiZn | MND = 3
C         0.32200988236850    6.61190955989059    8.53439689300205
H        -0.16205818707878    6.77365787079214    7.57541873670978
H         1.34790951999522    6.95751230761510    8.44748005582056
H        -0.17234067729478    7.25018812319287    9.26004847736344
C         1.22007370829640    4.67763186706817   10.72007018751633
H         0.93187402706623    5.48491585898447   11.38511759916747
H         2.28917378134358    4.76768335572046   10.54907329322303
H         1.05255738333257    3.74595389651693   11.25218620921087
C        -2.44797878665812    4.36639660643896    9.70835006240979
C        -3.26665188730310    3.10837662664416   10.02854830444488
H        -3.53275598518833    2.59292889133351    9.10503027271358
H        -4.18036571246199    3.36546443904438   10.55949368182180
H        -2.67831370083321    2.43498448187001   10.64764889906775
C        -3.28391302265268    5.29833559532259    8.81889695290389
H        -2.71380473314937    6.19633574096249    8.59732689596682
H        -4.21154328755867    5.57937220650050    9.31248119967123
H        -3.52083762599491    4.79868986248917    7.87971054196515
C        -2.13697483362644    5.08619939025967   11.02462661746423
H        -1.51172002868159    4.45904813777795   11.65222667304403
H        -3.05811686115775    5.31225221336843   11.55708069812265
H        -1.60924922182541    6.01406675199171   10.83020748323422
C         1.26542175867653    3.82917005899655    7.73219748741421
H         1.17742551514026    4.37249514172838    6.79013276351140
H         2.33185737107659    3.82327108909638    7.99217368905743
C         1.08141045614144    1.63831347394634    8.67355280743877
H         0.61604660749135    2.11623921065405    9.53403457158752
H         2.16754768612495    1.58411256554930    8.84935831029983
C         0.51727343631805    0.23613339547242    8.48810792835604
H        -0.56661584244591    0.31224049048946    8.34277207279396
H         0.69973349345210   -0.35465579513092    9.38722354000878
C         1.15530536353104   -0.42847230831258    7.27351289568066
H         2.22204258232876   -0.57671273406284    7.45993395994494
H         0.70806199643444   -1.40754122674117    7.09336149162361
C         0.96851144200723    0.46991378313670    6.05616206415313
H         1.49723765060379    0.06000887427013    5.19369735661853
H        -0.09226926022165    0.52994443186292    5.80878460226685
C         1.48764484253910    1.87369209696493    6.34589735419477
H         2.57374451673416    1.83412426544450    6.53072192592981
H         1.31616988648365    2.51596053752026    5.47758548286014
C        -2.64556776153306    1.97149676769479    6.02003747099235
H        -3.50085234892026    2.62703005057425    5.85055047196576
H        -2.13215014139022    1.89894526592544    5.06045729340385
C        -3.18367318386258    0.58453213272804    6.37959502923713
H        -2.38017185351133   -0.14114477693096    6.49525321587703
H        -3.84680816520712    0.21886993508281    5.59244105789262
H        -3.75314149166749    0.60726867862705    7.30716395994923
N        -1.24325263141812    3.96328727398890    9.01057059711376
N         0.80557639357530    2.46094074968038    7.49925424592696
Si        0.24321715893464    4.77097979186830    9.06906512359411
Zn       -1.40609922829832    2.78515299605941    7.43978149551972

