28
CSD_code = SAZFEF | q = 0 | S = 0 | Stoichiometry = C8H12N2NiS5 | MND = 4
Ni        1.93637234552787   -0.32023543791721    2.65740552768440
S         1.47119203440682   -2.83450041597958   -3.98097621734374
S         0.62387715622249   -2.88926168389131   -1.13520378773314
S         2.64159878006468   -0.94282525495478   -2.01368604900723
S         0.77601329248041   -1.85669736439716    1.74374415438752
S         2.89317295580995    0.18538628426082    0.82168130861843
N         1.22237779542398   -0.62845193437269    4.53100638752920
H         0.37054657098470   -1.18781676591243    4.49311216223394
N         2.95036281844887    1.03148354228694    3.77971497196141
H         3.39845787892013    1.72173102719146    3.17757702701560
C         1.57340520436100   -2.25337252788762   -2.45857010883803
C         1.27049914880762   -1.81099774110861    0.08067746195599
C         2.19661099421837   -0.91809493345362   -0.32239264406730
C         2.24407121664763   -1.40174015997284    5.25803684355766
H         2.56009284186069   -2.22546849695629    4.60825850607138
H         1.81827694251257   -1.82959169025464    6.17664475252120
C         3.45035283534604   -0.54462192177444    5.64452962821701
H         3.18212554663575    0.11181173555809    6.47343998560323
H         4.24076765034920   -1.20505426946904    6.00335034229148
C         4.00671454569502    0.28903948338528    4.48923052833669
H         4.50103005016092   -0.36195008376491    3.75948109041311
H         4.75530552010120    0.98336658917754    4.89623770374310
C         2.00544062290861    1.69784800302126    4.68314056026543
H         1.51894154079399    2.50415602334612    4.13156329805114
H         2.53088676541892    2.14029714855744    5.53868150180406
C         0.93672518494484    0.67320859458212    5.14508670107116
H         0.90928542382363    0.59050524649832    6.23888612596457
H        -0.04780366287498    0.99974700420136    4.80564223769134

