43
CSD_code = SAZFII | q = 0 | S = 0 | Stoichiometry = C18H18CoN3O3 | MND = 5
Co        4.43824323482785    2.56334884230432    6.26811301466926
O         4.15696137983234    1.13126175481043    5.11049607550915
O         6.14743928246479    2.61450356014718    5.61406384971670
O         3.07626921576599    4.61622233218067    5.72759121372390
N         2.89794169558472    2.09587632503322    7.25062542596396
N         4.90311075856291    3.74990845286809    7.66919532854709
N         3.70453521874667    3.73122901844635    5.22787675365017
C         1.85972822145970    0.68633952403763    5.62356678288094
C         0.65671333841160    0.13268091338593    5.14779319384127
C         0.58493875032731   -0.50040014186945    3.93472999474657
C         1.73735207139474   -0.63354740569106    3.15426825038730
C         2.92094922450150   -0.09333104203903    3.57291684263117
C         3.02205977700052    0.62519715450572    4.79206221562375
C         1.95056976694337    1.25974355754507    6.93789277195346
C         0.94987747796082    0.82354218037967    7.97509835991010
C         2.94405904183417    2.66474912474820    8.58634536042236
C         3.76176737859862    3.95330487646065    8.54414838898759
C         7.14676379683977    4.27601626515124    7.03599783041164
C         8.35378300351996    4.93315990757448    7.35305876310163
C         9.52821365777894    4.64807151176344    6.70965712827393
C         9.55136794590651    3.68014493284214    5.70039811361589
C         8.40904373219470    3.01054880853233    5.36787896104781
C         7.17101009018563    3.27870676874547    6.01046085206823
C         5.94028678904067    4.53416571864681    7.77157485436149
C         5.89621753252590    5.71674467573622    8.70294446780328
H        -0.24679110387644    0.24685885366141    5.72817239645034
H        -0.35575745501515   -0.89506826686666    3.58236172859844
H         1.68440208609957   -1.15142767790475    2.20753872531719
H         3.81609994018189   -0.16142875502831    2.97493424929708
H         1.94073763371187    2.89272067315228    8.95976196745039
H         3.41995623333969    1.94790274563912    9.27024031571298
H         4.07280145494509    4.21639464250521    9.55985103793958
H         3.13629957055133    4.75851461875862    8.13840434197657
H         8.37609836317292    5.66136490500759    8.14855507964027
H        10.43563110357511    5.16372160758843    6.98461817461801
H        10.47710761964611    3.46108199354304    5.18847930645405
H         8.39819177634514    2.25550487218883    4.59740350504891
H         1.44874954108484    0.62411853852891    8.92192232595811
H         0.20551354316900    1.60367256950588    8.13750168571012
H         0.44325282431744   -0.08337144911834    7.66461811169419
H         4.89935583828296    6.15123114778808    8.71185458821277
H         6.15745011595777    5.42156736141244    9.71960520782442
H         6.58759853230081    6.48555400339224    8.37642245824849

