58
CSD_code = SAZHIN | q = 0 | S = 0 | Stoichiometry = C28H23AuClN4P | MND = 2
Au        1.23095611948377    2.67279800215711    0.29824685760858
Cl        3.46803746475093    2.91471955680235    0.68798271474405
P        -0.90552887223860    2.38458222097195   -0.31109072042162
N        -0.28495703148542    4.16530077780360    2.04771680498013
N         2.20603392016122    4.75390910961588    4.52985498967570
N        -0.51262920811286    0.90727578700900    2.03461616243747
N         0.97018674263689    1.58245955706171    5.17902773169593
C        -2.02659731161034    3.57708729118053    0.52776413936430
H        -1.92396088602160    4.52081247117137   -0.01913081693863
H        -3.06756675030636    3.24198814611865    0.49929437204206
C        -1.81587811192550    3.70386725862896    4.30299488432362
H        -2.41576686964998    3.51418226606347    5.18085986817671
C        -1.54313785516969    3.76043207455220    1.93593200299418
C        -2.35411174732465    3.52372583231677    3.03634420535761
H        -3.37620106970992    3.19952425304994    2.90607964626440
C        -0.50907839877901    4.13086026772452    4.42193110012371
H        -0.03851125384194    4.28609596191995    5.37749748969162
C         0.23009677124068    4.36155988596982    3.25970466283208
C         1.61496294468002    4.83922729976050    3.33815624990855
C         2.26111688675307    5.36336130395151    2.21977130350217
H         1.72981235486480    5.44410273696236    1.28587990045453
C         3.57982413453542    5.76245347608666    2.34021510972903
H         4.11442071307157    6.14722104046652    1.48502286386575
C         4.20180159262975    5.64262545452036    3.57187818329080
H         5.23314331684922    5.92909287666954    3.70817648068421
C         3.46008316585595    5.14484833547567    4.63379167538638
H         3.89224915443624    5.05160253464572    5.62277546946772
C        -1.73738587618786    0.77319245286612    0.01587272974725
H        -2.75835347998674    0.76487830655699   -0.37835417545063
H        -1.15162618267300    0.00022676516625   -0.49282317415354
C        -1.68450086119048    0.59062780985938    1.50058959522556
C        -2.77081003529483    0.17760370487270    2.25862139760633
H        -3.70742150836682   -0.07603637742245    1.78468074178703
C        -2.61916732764190    0.10596969050451    3.63664104351307
H        -3.44533724006690   -0.20519042772431    4.25983272145318
C        -1.40245207204420    0.44267543294105    4.19527933740409
H        -1.22980674584041    0.41690841980311    5.25830212554482
C        -0.35754592626309    0.83065834200756    3.35289502517085
C         0.95564904059449    1.17706441426057    3.90872460074523
C         2.11212380758791    1.06773552493120    3.14250516829980
H         2.05459728810339    0.70197549709462    2.13071219042880
C         3.32173536884785    1.43133573421076    3.70865463667870
H         4.22796893537727    1.38229642113627    3.12511708471288
C         3.33245935437382    1.87390376344744    5.02039405260360
H         4.25078430198810    2.17346064594512    5.50074818235451
C         2.12741169098292    1.92380951462966    5.70832986487138
H         2.08487325541728    2.25643347359644    6.73750735433635
C        -1.28964062747227    2.62455210316197   -2.07177933205004
C        -0.22431711778003    2.66446649316954   -2.96399727714178
H         0.78323309612814    2.56614926741507   -2.57914966530350
C        -0.45496089876047    2.83448894439577   -4.31745478062092
H         0.37582482431896    2.86379377884862   -5.00631647034855
C        -1.75153084351904    2.97154272447184   -4.78446332799374
H        -1.93434920034179    3.10786304104152   -5.83986113085225
C        -2.81720201090242    2.93795645976706   -3.89837477892727
H        -3.82741674740192    3.04909813409485   -4.26460937756113
C        -2.59103470625250    2.76345837172828   -2.54594533247485
H        -3.42620147151704    2.74038579457302   -1.85937236084434

