70
CSD_code = SAZJAG | q = 0 | S = 0 | Stoichiometry = C22H38B2ClN6Rh | MND = 7
Rh        3.33797221836226   11.11196358374648   15.14001567028965
Cl        3.65968326837609   13.02812994315304   13.96815052333648
N         2.30410648007148   11.24576103272802   11.83138526366656
N         0.43898227628397   12.26485106864498   12.52342569279837
N         1.74402759984708   13.32569214969733   10.87286669727748
N         1.54990072750596    8.98468744471727   12.69540184928836
N        -0.43819731132623    9.93859996041722   13.10982027838278
N        -0.39920607787406    7.73637232670457   12.29618177625552
B         1.99420008400355   10.40976174251355   13.09366682169150
H         3.13632485706041   10.28062627118316   13.71189732542881
B         0.50357082248999   11.11063450256581   13.56518347321080
H         0.10827314054505   11.51890521400896   14.61863451320217
C         1.51424577037688   12.31145000349878   11.75721729573023
C         3.55291986809681   11.16387273228810   11.11201734256771
H         3.70275041332341   10.12469614929000   10.79890006842182
H         4.37317873385573   11.43802436587038   11.79113876934266
C         3.56145252581883   12.08635252591951    9.90076680168453
H         4.56327575094396   12.14475654422682    9.47545930900045
H         2.87593117079717   11.71031228248548    9.13730675267521
C         3.09342871839513   13.45829177548249   10.36015432320412
H         3.76462492715882   13.84275730308705   11.14011150266561
H         3.06999384205347   14.16664625996689    9.52660478379967
C         1.00986975328939   14.55962291775428   11.05809947204105
H         1.09286916293389   15.14092671471993   10.13377840727374
H         1.44201624157913   15.14949198539847   11.87872154803338
C        -0.44356484687000   14.22505314904569   11.35965415565673
H        -1.02502946621453   15.13702175080334   11.49579462678013
H        -0.86203945862912   13.66323391158696   10.52176990769009
C        -0.47811071193380   13.37115278746083   12.62139531019376
H        -0.21654415634375   13.98417058310094   13.49481956943007
H        -1.48077311770636   12.96624198397683   12.78896922489248
C         0.22534920789907    8.87805490943773   12.69258256130855
C         2.36915125310249    7.85595206188235   12.33812642564584
H         2.52010801133190    7.19959934866403   13.20936129009083
H         3.34842313166494    8.22349046999878   12.02679572182412
C         1.69097724042720    7.07048784947149   11.22003455339221
H         1.56742965835036    7.72169536433324   10.35258873075021
H         2.28419311795597    6.20382402669998   10.92886853536508
C         0.32554751478127    6.62261024876209   11.72346454990333
H        -0.26883413270968    6.21251002964285   10.89835298829291
H         0.44647408063975    5.82991709472000   12.47733621064308
C        -1.83292301727779    7.58725870050848   12.41877169108788
H        -2.04850314912301    6.54202219747526   12.66745121289033
H        -2.32018684616169    7.81342404358178   11.45838514489325
C        -2.36644671954656    8.51166177039127   13.50456659932284
H        -1.97999321914983    8.19325820542708   14.47437246611134
H        -3.45522423080082    8.47326534052045   13.52920771258330
C        -1.87193933991086    9.92549061427017   13.21173265729628
H        -2.32787000328150   10.29159063724086   12.27987346315209
H        -2.15150222061828   10.61053180502093   14.01575983478650
C         3.18642137678153   12.13932325698912   16.99001620035589
H         2.77898942012325   13.12915028369985   16.78206620151720
C         4.53066315815401   11.92185773444183   16.68306277289413
H         5.10082644085534   12.76571611391654   16.29307671662216
C         5.39446367938805   10.86165875306606   17.33095907690142
H         5.63379352926169   11.16472229632488   18.35662827640165
H         6.33684542373757   10.81349006712138   16.77984356283067
C         4.73736322054220    9.46998057614424   17.32276205107008
H         5.51835563495379    8.70829170924628   17.26359206342621
H         4.19154380715927    9.29855332087997   18.25187810074957
C         3.78752297680015    9.30264958113837   16.15263991730521
H         4.10072929302676    8.54672661169968   15.43113075900265
C         2.42002941296293    9.56939202000165   16.24088721917666
H         1.75160623262479    9.00539831079400   15.59291278420594
C         1.72847764743044   10.12713455130097   17.46275953051088
H         1.63006647922953    9.34340637870267   18.22395641418177
H         0.72058928102293   10.41828492730790   17.15965810945507
C         2.44487052174470   11.35577046581925   18.05264140554105
H         1.70325815362184   12.00431645044132   18.52350811816660
H         3.14842076670852   11.05317090689433   18.83027931443380

