70
CSD_code = SAZJOU | q = 0 | S = 0 | Stoichiometry = C22H38B2ClIrN6 | MND = 7
Ir        4.48863619061210    3.91099809795963    4.19361530853796
Cl        4.14620269757546    2.02011386350667    5.48858296220184
N         5.67535723869626    3.84582281045893    7.51721268531455
N         7.53427091720611    2.81636557280294    6.82806834601264
N         6.23801627833552    1.77782034873109    8.49899471893711
N         6.42089911933581    6.10709607380910    6.65966415954344
N         8.41838171276277    5.15080863645379    6.30742710822367
N         8.35728826091411    7.33965517261519    7.15661800485033
B         5.99027656810151    4.67993308014133    6.25218693916803
H         4.87954621488766    4.79397562478935    5.61886730835503
B         7.48595233069032    3.98748823315051    5.80331276206164
H         7.91230002999537    3.60301526345199    4.75591182297840
C         6.46432225782138    2.78172268003596    7.60173241361644
C         4.44119720651523    3.95013646090598    8.25811693977634
H         3.60517532380340    3.67463344958284    7.60042666100983
H         4.30757940372050    4.99493568019670    8.55985559426118
C         4.44711310610946    3.04390762393366    9.48199856514331
H         5.15018677802479    3.42341691566427   10.22779423082986
H         3.45295047754811    3.00003677684636    9.92649071947935
C         4.89498375003135    1.66196239268819    9.03186189376591
H         4.92417982527112    0.96270388005565    9.87290831647191
H         4.20856452217684    1.27574893937744    8.26627706810411
C         6.96602591541278    0.53959207606109    8.32078714792069
H         6.52661617056642   -0.05735361229634    7.50905330617347
H         6.88719776511604   -0.03279092270822    9.25101304159958
C         8.41887727713470    0.86643541316574    8.00663374119008
H         8.84393905989420    1.43525021321956    8.83647784708716
H         8.99683374970914   -0.04864246422823    7.87633778366503
C         8.44899418970712    1.70832195711626    6.73643513769746
H         9.45150141681822    2.10951672612243    6.55993616688954
H         8.18328219600904    1.08640073620311    5.87025733612970
C         7.74455255350928    6.20692028375460    6.71721947668856
C         5.59490232583991    7.23434201190720    7.00363012466500
H         4.59908011246823    6.86953123442798    7.26067671244370
H         5.49061054105933    7.91149548305477    6.14152075114028
C         6.22849000039909    7.98877111646871    8.16891597060270
H         5.62841388176248    8.85202897645463    8.45607473997068
H         6.31131965885445    7.31583456799986    9.02478941833070
C         7.61689303107406    8.44011737228730    7.73524951511441
H         7.53265573892783    9.25710033907403    7.00257620639889
H         8.17963659824987    8.81978947052395    8.59666349020022
C         9.79622679384242    7.47746382689884    7.10361349234164
H        10.23777152437172    7.22351988499490    8.07930504652474
H        10.03217840343448    8.52617236870536    6.89036916821842
C        10.36946164408773    6.57365347835320    6.02063190860264
H        11.45862805234644    6.60468714146160    6.04263183191544
H        10.02624545063576    6.91700784968173    5.04302242645306
C         9.85469124151779    5.15681236203988    6.25962512122234
H        10.16013505109715    4.48982085140326    5.44967733656100
H        10.27293941738768    4.76419295177433    7.19850281145545
C         4.48948738965768    2.78858053935720    2.39974268627839
H         4.81045166734745    1.77332302625622    2.61958584774367
C         3.17112184668251    3.13008870374504    2.74704074908199
H         2.55136831484398    2.34266792141975    3.17376464191378
C         2.36717090798133    4.20530946407489    2.04620628481702
H         1.43828757927391    4.34437911363652    2.60217723230649
H         2.09578161322072    3.86269725746406    1.04195630145879
C         3.11447417613212    5.54945642564971    1.97154911022376
H         3.63322358627198    5.64399214384550    1.01660949112525
H         2.38875733227065    6.36332957420841    2.02543944410377
C         4.11973258004852    5.69969174963653    3.09906849919159
H         3.90553619141877    6.52809576964180    3.77244460702604
C         5.46432626594561    5.32365218295240    2.96805331113797
H         6.19975275226286    5.87814852708168    3.54631460341557
C         6.05416661505591    4.66321016649183    1.74341063025022
H         6.15887913162953    5.39730608397214    0.93589527597478
H         7.05696593641350    4.32659979595660    2.01081264473060
C         5.23451066051451    3.45259875755809    1.26052348746588
H         5.91024542669339    2.72809901055596    0.80262520609808
H         4.51968005498720    3.75608451540794    0.49402835981818

