57
CSD_code = SAZJIO | q = 0 | S = 0 | Stoichiometry = C18H26B2MoN6O4 | MND = 6
Mo        0.71551363265862   -0.00009004763201    5.18816088899765
O         2.02310572283299    0.00061240585891    8.00059587470799
O        -1.44964450922267    1.99270889808009    6.08496289561734
O        -0.34890141831987   -0.00052454548957    2.27497648574091
N         4.02800372127706    1.12630920838394    5.21795924730429
N         5.54293801199838    0.00000050209465    6.62124909757340
N         3.03836659797427    1.12625552745423    2.82563786733287
N         3.11232895453310    0.00000591252798    0.76183562991775
B         2.80664771624352    0.83818193985066    4.32234235868173
C         4.55143391052210    0.00000125825806    5.69874848002006
C         4.46812345825675    2.42106742684790    5.67882266180964
H         3.61152651349855    3.09924304638520    5.63752113720213
H         5.24686266686978    2.81757729735109    5.01054019876881
C         5.00533807581103    2.31918263350247    7.10092643586361
H         5.41255438756729    3.27300410441920    7.43423429993712
H         4.19380428977062    2.02679064892551    7.76953977090012
C         6.08476992391014    1.24526302357304    7.11974519783549
H         6.94207378142506    1.56029757206445    6.50678679969951
H         6.44235554322563    1.08132432699335    8.14027977502874
C         3.06694925848420    0.00000909591346    2.11534918681526
C         3.02734760209576    2.42079408428766    2.18812296458795
H         4.05216843232138    2.81219972384478    2.10530939761448
H         2.45690051166509    3.10212839723537    2.82500478062636
C         2.39552083832435    2.32066141201904    0.80533365870436
H         1.34859122041035    2.03103165728314    0.91100254814474
H         2.44802480315882    3.27431125150338    0.28140475578210
C         3.13947569572170    1.24499137173986    0.02541282215560
H         2.66445009638583    1.08094905544634   -0.94604639104098
H         4.17838014129625    1.55861430168613   -0.15415633550351
C         1.51205495457145   -0.00084204042433    6.97169944936166
C        -0.61573755533644    1.28045940905549    5.73902293980412
C         0.01759269819080    0.00096704841996    3.36377898792507
H         1.77436607808944    1.44547586449496    4.74925065964950
O        -1.44976819855802   -1.99277785181225    6.08495578176322
N         4.02802892430178   -1.12630961868106    5.21794996688956
N         3.03836986460131   -1.12623705697437    2.82564419459607
B         2.80666908850695   -0.83819187723450    4.32235367981689
C         4.46812942517997   -2.42107003953349    5.67881993825736
H         3.61151857655615   -3.09922945218065    5.63752408090065
H         5.24686099151623   -2.81759735866979    5.01053953080864
C         5.00533750445723   -2.31918112667582    7.10092419751863
H         5.41254339041900   -3.27300528661186    7.43423726219352
H         4.19380452667756   -2.02677623271752    7.76953365559051
C         6.08477623959492   -1.24526817140663    7.11972631162878
H         6.94206408968243   -1.56030605626685    6.50674703714539
H         6.44238365384397   -1.08133828622660    8.14025403125644
C         3.02733524164525   -2.42077760239927    2.18814194867283
H         4.05215035162457   -2.81219845298700    2.10533126919495
H         2.45687801209519   -3.10209413494565    2.82503374625728
C         2.39551027698890   -2.32063352528004    0.80535482017011
H         1.34859171191314   -2.03096083451568    0.91101932872503
H         2.44797929515349   -3.27428916535562    0.28143485307644
C         3.13950734452416   -1.24499139568804    0.02543650566703
H         2.66452891138562   -1.08096630189784   -0.94604747983047
H         4.17841980832335   -1.55862354212560   -0.15407300188570
C        -0.61577496687998   -1.28056424057586    5.73917065039740
H         1.77447018023564   -1.44557416119245    4.74933316362342

