57
CSD_code = SAZJEK | q = 0 | S = 0 | Stoichiometry = C18H26B2N6O4W | MND = 6
W         0.55953247128472   -0.35139241709947    5.24803034635365
O         1.96870700643909   -0.17070689905243    8.03599997653776
O        -1.51028105717575    1.80188943602618    6.10750742543909
O        -0.42969821200284   -0.17282356898708    2.28478271634813
N         3.96753668901033    1.18415115796057    5.21374655938298
N         5.55976305052340    0.02569151423437    6.49909073638557
N         2.98592130512963    1.18435924846052    2.85527504295510
N         3.19662788093988    0.02606886599566    0.81978335571456
B         2.66864393744821    0.99317328068269    4.37081378777332
C         4.49499346852144    0.05457084014536    5.65972043699524
C         4.48163053846447    2.46493675782574    5.62843626854910
H         3.64713986502337    3.16964892928330    5.64382195176863
H         5.21829437243454    2.83086119218421    4.89781962058406
C         5.12558984686459    2.35857187571013    7.00495919059918
H         5.58326389712434    3.30354797339760    7.29539311538985
H         4.36144986282524    2.09427072731441    7.73785763678235
C         6.17352852699373    1.25535552412541    6.94914509523469
H         6.99147396477309    1.54448501869259    6.27256443394958
H         6.60226249051190    1.08387890503259    7.94091930337457
C         3.04148106666937    0.05481523582608    2.16673457445449
C         3.05323863016146    2.46519945201274    2.19831116471258
H         4.09055213928661    2.83167458765294    2.19034538247598
H         2.45397142469296    3.16960184068514    2.77963972440662
C         2.53023742635660    2.35856061787158    0.77145870989697
H         2.64601038811856    3.30361781823840    0.24206193958763
H         1.47191728758667    2.09359165136540    0.79730122630304
C         3.30895104845239    1.25583859761103    0.06718564166410
H         2.90747904579430    1.08414632978994   -0.93589886484736
H         4.36519181291355    1.54566287378646   -0.03640758018146
C         1.39992752873545   -0.28285204172245    7.04439523563394
C        -0.73271283876471    1.01906500709234    5.78511404987160
C        -0.12463997194953   -0.28408548409901    3.38662108688171
H         1.91686325539758    1.88263107955541    4.68376271595283
O        -1.76920602634221   -2.16614959886703    6.21576135109208
N         3.89617901042539   -1.05441731352552    5.23725651223567
N         2.91951204880460   -1.05425712567311    2.88925392312990
B         2.64391745791987   -0.76719562758039    4.38104018102221
C         4.32817230713123   -2.36045174347410    5.66883515121530
H         3.44936328952639   -3.01106754135180    5.70695557543337
H         5.03398576949157   -2.78819498738244    4.94074246475694
C         4.98781876583419   -2.27098291946403    7.03898841027734
H         5.38903226521218   -3.23763002247847    7.34144160741540
H         4.24703813231993   -1.94969905293542    7.77315174250687
C         6.10052438706650   -1.23458863719815    6.95826255248119
H         6.89178463210985   -1.58190534947441    6.27709527547305
H         6.54988524238754   -1.07856165712903    7.94325294685826
C         2.91793180691753   -2.36024198555652    2.27849104332263
H         3.93195316083079   -2.78784790487675    2.29083406224519
H         2.27163595582666   -3.01098247332778    2.87504402344077
C         2.41076699925225   -2.27072866099593    0.84488470008598
H         2.47910871899761   -3.23730968500179    0.34699875323501
H         1.36779792873411   -1.94961096996505    0.85305080418590
C         3.25208337667023   -1.23415710729137    0.11245669814309
H         2.86999172488821   -1.07813048187629   -0.90052862401964
H         4.29301811259529   -1.58134083409267    0.03116285692435
C        -0.89715015784084   -1.50620166955573    5.85364051692337
H         1.73570694265611   -1.60635257852448    4.75893546468628

