26
CSD_code = SAZMAK | q = 0 | S = 0 | Stoichiometry = C6H15AuNPS2 | MND = 2
Au       15.28303473440105   22.60300677495820    5.27080203402702
P        13.68155918709392   23.62284981744996    6.50797498219536
S        16.79654045026340   21.44593157026320    3.88171834475405
S        13.94394565737654   20.90828785895427    3.36942112300455
N        15.91023596040054   19.77476753272856    2.03521062897717
C        14.05813273038625   24.34059890619777    8.14551646429194
H        14.78805895276098   25.14000652865329    8.02436670025178
H        14.48920683841885   23.56603724298808    8.77870075335920
H        13.15264511267882   24.73393006085861    8.60875016039224
C        12.31429546074696   22.47525310584852    6.85859213755423
H        12.67383842448221   21.68545482519354    7.51732991523285
H        12.01012674493661   22.02493946850687    5.91329151460693
H        11.47061548591359   22.99129011591851    7.31892305603940
C        12.83486167141345   24.98685952673106    5.64575133844431
H        12.00402298099979   25.36815930354404    6.24091172836209
H        12.46495294342427   24.60352229408907    4.69511703174450
H        13.54797126362895   25.78645406151090    5.44876455270826
C        15.55672072771039   20.62737350432128    3.00173913664898
C        17.27864486627056   19.49233842750775    1.68324356974632
H        17.44235420209101   18.41227036814681    1.69856363975887
H        17.95258775334608   19.96788055415583    2.38987219150435
H        17.49193007750924   19.86664060931137    0.67811534936475
C        14.93934065438579   19.07475173476710    1.23116122273120
H        15.09860387749540   19.30684783064605    0.17525883554489
H        13.93669487244445   19.37998697581797    1.52151568040999
H        15.04397836941985   17.99626100093023    1.37558790834769

