47
CSD_code = SAZMOW | q = 0 | S = 0 | Stoichiometry = C24H18PdS4 | MND = 4
Pd        0.45276220949012   -0.55467547868745    5.22603398043740
S        -0.72870083568446   -1.32070483804567    3.40214901137083
S         2.45770258010706   -0.74554495041816    3.99884991195589
S        -1.54869695995199   -0.55113356847069    6.36783118124877
S         1.57595583088962    0.07869059056740    7.20182845053536
C         0.49983298427610   -1.53889370969659    2.19067855073894
C         0.11179038474579   -1.97978994149527    0.91866094187668
H        -0.93453019504289   -2.18055716851680    0.74730331643557
C         1.04037658200235   -2.15356079436497   -0.08216543328262
H         0.71765196468409   -2.49639154434131   -1.05380852045887
C         2.38709297463490   -1.89352295433147    0.14618216834153
H         3.11225661651830   -2.02967641085192   -0.64061637018511
C         2.79225305967164   -1.46468223474984    1.39468798622383
H         3.83269792524099   -1.26349339942573    1.60329140495929
C         1.85554487466562   -1.28616482413379    2.39939803830424
C        -1.08518639557321   -0.11757884414153    7.98682456116908
C        -2.08447269865660   -0.03451741924997    8.96527515369205
H        -3.10055596654895   -0.25187507764429    8.67416288513588
C        -1.77717974244808    0.31166527744710   10.26132653082537
H        -2.56435253954923    0.36666172748304   10.99836745448139
C        -0.46545730612655    0.58817577267839   10.62948997997885
H        -0.22722093418911    0.85740032767878   11.64630869482792
C         0.53553174876619    0.50949785638614    9.68129825010140
H         1.56393828885131    0.71329371006001    9.94043700371025
C         0.22329402869857    0.16576010179476    8.37667894208479
C         2.51149218825615    1.02067589209033    3.67382015882370
C         1.37451442453643    1.68920006405865    3.23178742319089
H         0.42942414754703    1.15912151536409    3.10661476083687
C         1.46155791659703    3.03784291231894    2.93499454283300
H         0.58688859817958    3.56014790861000    2.57875624833732
C         2.65833240645018    3.71665594437856    3.10005146904174
H         2.71693506070958    4.76919163598704    2.86863855444963
C         3.77780937065600    3.04761693916952    3.56341759118949
H         4.70987546532541    3.57533287452617    3.69724124590060
C         3.71052994695326    1.69422436882552    3.84475903817901
H         4.57891411005516    1.15776783135555    4.19585077380032
C         1.64199995044964    1.82679794317411    6.78890380491702
C         0.55670247762715    2.44371325390412    6.17749334719717
H        -0.33098286950828    1.86707593654904    5.90434572980546
C         0.60904814866856    3.80420116667267    5.93073076451488
H        -0.23474471725103    4.29277294821633    5.46811128144851
C         1.73703177834884    4.53460802261058    6.26811596684758
H         1.77078095604399    5.59514329353661    6.07011996114513
C         2.82131649152886    3.90659748409090    6.85624377797577
H         3.70273075902849    4.47318828998071    7.11564749041811
C         2.77476768836761    2.54988871256556    7.12534665635066
H         3.60894722195588    2.04935285649866    7.59293533828680

