47
CSD_code = SAZNEP | q = 0 | S = 0 | Stoichiometry = C21H23CoIN | MND = 8
Co        6.49358051861305    3.46687589584295    7.03786377817660
I         5.08894428141036    4.29392981850350    8.97067246070277
N         6.11507716241458    4.96719837567932    5.92558349548026
C         4.99857113166789    5.13222786213539    5.22120328355158
H         4.19412307612365    4.43478751694454    5.40988010666738
C         4.83818871806809    6.15201060405566    4.30489622625040
H         3.91524796974030    6.24203456207961    3.75505979809874
C         5.88023270113581    7.05211626428938    4.11655143493075
H         5.79267220336134    7.85232080384162    3.39735237989405
C         7.01947851590720    6.91623166766690    4.88208811929074
H         7.83576940725724    7.61368008295376    4.78533686002859
C         7.11303213501799    5.86765150239539    5.79618939467248
C         8.18917297520538    5.64346510067350    6.73837152452722
C         9.29663679484743    6.47293296236698    6.91759998916712
H         9.45186187234035    7.32195942965575    6.26798828100963
C        10.18313741891954    6.21502486684433    7.94139148540584
H        11.04162361859117    6.85386126164905    8.08760987602536
C         9.95458164357975    5.15219055636927    8.80391938990081
H        10.63020772724122    4.97419330710706    9.62847384675215
C         8.86259644936595    4.31903409003218    8.62472681205165
H         8.69574370205815    3.51602658715193    9.32796713670331
C         7.98516448292219    4.53313019544230    7.57335967091730
C         6.90069884442577    2.25413784242464    5.41052582178715
C         7.82685049198645    1.97640568419802    6.46584960624135
C         7.07018331012506    1.54185734160151    7.58733541717185
C         5.69125499753515    1.44384730454670    7.17763872493732
C         5.58831792475625    1.87330905212957    5.84407252001245
C         7.28490763335330    2.61469212167319    4.01084030651836
H         6.47276890845190    3.11834671205816    3.48807627380756
H         7.53232108023897    1.70664059904285    3.45681298571480
H         8.15772700894507    3.26590699652393    3.99614547447225
C         9.31512499763099    1.95816581771586    6.31524693250155
H         9.61620641920893    1.01567831277729    5.85252343669685
H         9.81517216504189    2.04434844207470    7.27665747887018
H         9.66160754772243    2.77236193111570    5.68120537377461
C         7.59447484495532    0.95327333006139    8.86049440448207
H         8.66656339461496    1.10772984454189    8.95393113232232
H         7.40134790585909   -0.12116016094963    8.87041289290268
H         7.10134315572250    1.38799479885200    9.72952603490522
C         4.60652924027149    0.81811074995918    7.98900249302145
H         4.58277528693550   -0.25509858003839    7.78652146479125
H         3.63243466170439    1.23356337584529    7.74071221816960
H         4.77752551128683    0.96231526182700    9.05268386421301
C         4.37014438915131    1.73705573804350    4.98400848181973
H         3.46731966517040    2.01801105203283    5.52561867060795
H         4.25894790509948    0.69443620568323    4.67768664754029
H         4.44320820401542    2.34408691258043    4.08368599251024

