51
CSD_code = SAZNUD | q = 0 | S = 0 | Stoichiometry = C26H14Br4N4O2Ru | MND = 6
Ru       10.51349461167509    4.53658960741248    7.74355569736459
Br       12.57574552317849   -0.61753610628219   10.06426922841533
Br       13.32569968214112   11.12394581205621    5.40162627786566
Br        6.06185225318682    0.53036041441467    7.35085922552003
Br       14.58659475051411    8.26228238800920   12.56314076055232
O         8.60729854860726    6.81137005721905    7.17712129473359
O        10.58438521426066    3.26822915296319    5.02151714174442
N        12.35597630118942    5.54517614629855    7.55950176218762
N        13.37507893840444    4.97828595687610    8.07031229830777
N        10.43206440255426    4.87500265921643    9.74537722430922
N         9.68363702695111    4.14311523961165   10.46428691861922
C         9.35624827208781    5.96276367137659    7.35609401596003
C        10.57063827496644    3.81144658145540    6.02869239478365
C        13.16958960824731    3.71534012563973    8.53604710036602
C        11.88225874772423    3.12656630635741    8.38651198973801
C        11.74919266619336    1.82319030013655    8.85400553072348
C        12.82285770463134    1.16101841055516    9.43034369670545
C        14.07516225044981    1.75344265439300    9.57333401798346
C        14.25103993135589    3.03682930143061    9.11731560398816
C        12.59987737330114    6.82295758470893    7.05514423476528
C        11.81041379879671    7.32006034827108    6.01622127909125
C        12.03157970505600    8.58752080096507    5.51893156474467
C        13.04089614531242    9.36795439134224    6.06514653691471
C        13.84742549947156    8.88447557901762    7.08586526344598
C        13.63374586990998    7.61223839647263    7.57084995942405
C         8.85788345122887    3.32846556894884    9.75728967307049
C         8.96874176393499    3.33604165123641    8.33746455362388
C         8.11277503402051    2.48108636717741    7.64885524190273
C         7.21394608059193    1.68107090634100    8.33459156503780
C         7.11901241518454    1.68295305894637    9.72674480999164
C         7.94397652445134    2.51299324438267   10.44261061960565
C        11.34984650361289    5.66968404344171   10.44377421273598
C        11.53824983154900    6.99938585244303   10.06582357383293
C        12.48288448609745    7.77286218140138   10.70787464721573
C        13.24707060492564    7.21076897085608   11.72028266905309
C        13.05521852665845    5.89772674253535   12.12248365024968
C        12.09568438671054    5.13131724870483   11.49320701598417
H        10.80304221801799    1.30430021807377    8.77189936820061
H        14.88487355328581    1.20743454176167   10.03142293746724
H        15.20175456591228    3.53946715443746    9.20344001553911
H        11.04315896697305    6.69228883424313    5.58084896399142
H        11.42692266567011    8.97034356964829    4.71163038927047
H        14.63398428163065    9.50062645076441    7.49332647955012
H        14.24924527686673    7.21191805901420    8.36153071634884
H         8.13896246214798    2.43219440986757    6.56813783700647
H         6.40765691830468    1.04031639373356   10.22108515245853
H         7.90907240285641    2.55060807592961   11.52007226151473
H        10.92731378713749    7.42641215110383    9.28082628581777
H        12.62944109810318    8.80333366314708   10.42374043241152
H        13.65232976298029    5.48018778898528   12.91810180094617
H        11.93039933097883    4.10408707295825   11.78186410891719

