85
CSD_code = SAZSIX | q = 1 | S = 0 | Stoichiometry = C35H46N3Pt(1+) | MND = 4
Pt        1.04154875204966   -0.39469293589155    2.46280498347542
N        -0.00878956646971   -1.66849545625683    3.58538928722537
N         1.00850468182634   -1.87467591711078    1.24872242019337
N         2.07533215409470    0.43173895882725    0.97128093905263
C        -0.47434667399318   -1.51284390471578    4.82189474937649
H        -0.29815765979609   -0.54494811094520    5.27368917596905
C        -1.14722436463691   -2.50894703572600    5.50500757402966
H        -1.48850510876006   -2.30384948613829    6.50449318684842
C        -1.37311482094938   -3.74454454804031    4.90100009925856
C        -0.88799060017952   -3.89263129001430    3.60144825523729
H        -1.02773924998562   -4.82235353539264    3.07512746406020
C        -0.21583295133943   -2.86276040699140    2.96380708085460
C         0.32113906227331   -2.96432924759164    1.59772101559014
C         0.18034913367515   -4.00305414535036    0.68894647727461
H        -0.37448372941849   -4.88462101179523    0.96109077120985
C         0.75068618312365   -3.89726848310780   -0.58469817905910
C         1.43538569286842   -2.72428013544389   -0.90579954490146
H         1.86944933556831   -2.59421439805849   -1.88081666995472
C         1.54729818624130   -1.71145101659568    0.04054425053149
C         2.19901185779149   -0.40015326199378   -0.10039048137398
C         2.89848400963417   -0.00951082785482   -1.23065286961788
H         2.97195175053426   -0.69739128490473   -2.05668765573756
C         3.50358027048061    1.24493299368968   -1.30881090867008
C         3.36260476229990    2.06708810263340   -0.19213939492699
H         3.79743288240703    3.05074311069433   -0.16344936216635
C         2.64988751944094    1.63018783350997    0.90936302699822
H         2.52382305176571    2.25962727140212    1.78135047982792
C        -2.10101624011717   -4.88579329960596    5.57674173253532
C        -3.35170899378961   -5.22579730752979    4.75197375181265
H        -4.00590765615274   -4.35975818063551    4.67939992675294
H        -3.90028459791791   -6.02914655049234    5.23589141213182
H        -3.09653305989698   -5.54961926155848    3.74652440796130
C        -1.16541863730241   -6.10273797930568    5.63699193848772
H        -0.88312113895235   -6.44629388775698    4.64553636312462
H        -1.66554339182584   -6.92164368942580    6.14660593383926
H        -0.25982081452478   -5.85890116927699    6.18812795182427
C        -2.53573776623362   -4.53484088427855    7.00091487677230
H        -1.67864723375189   -4.30173375938438    7.62819214706638
H        -3.04660658232913   -5.38770243443461    7.44003171323362
H        -3.22656574032316   -3.69523872015655    7.00712319135953
C         0.59299245976786   -5.04360509225555   -1.56488844388634
C        -0.90357226445238   -5.25367531409337   -1.84030972815675
H        -1.34510509364187   -4.35036503882301   -2.25616818123222
H        -1.44766535904499   -5.51710162895583   -0.93739356173192
H        -1.03326697206402   -6.05897857537408   -2.55812547132647
C         1.19561123151031   -6.31264102333932   -0.94360494373571
H         0.68055037082972   -6.60157028958092   -0.03163502228908
H         2.24761633260983   -6.16056220176148   -0.71102755334116
H         1.11727054140179   -7.13644807373974   -1.64770929089561
C         1.29733531894164   -4.77937178087332   -2.89766189594400
H         1.16106676383351   -5.63842631735234   -3.54924208970022
H         2.36683427114457   -4.63690995857064   -2.75814920216917
H         0.87715380395291   -3.91286191599098   -3.40359914278173
C         4.25598258775773    1.65050690572950   -2.55720997969111
C         5.38298708180084    0.63776171568675   -2.80999568134679
H         6.05806132930004    0.59997339411169   -1.95786960858951
H         5.95318556079597    0.93830415835953   -3.68465945279910
H         4.99689853800480   -0.36205686102612   -2.98849988057011
C         3.27496036433784    1.64898594794751   -3.73951485110564
H         2.85274601668679    0.66263621088812   -3.91201702575473
H         3.79285620884205    1.95737790761138   -4.64349395028203
H         2.45973022378437    2.34574525599603   -3.55738345150245
C         4.87315147054575    3.04504023182852   -2.43600653847406
H         5.40448998966477    3.28285446683755   -3.35375499570639
H         5.58715821579741    3.08972422334355   -1.61711590309787
H         4.10834647277530    3.80387945794614   -2.28976615759070
C         1.09772981758545    1.12073126021711    3.71381747285828
C         1.51366004431946    1.82024992775893    4.61204113198036
C         2.16492881591151    2.49537999720327    5.71778676879063
H         1.44762350794914    2.71823940299053    6.51209890130140
H         2.60634069527628    3.43709254294991    5.38069015121056
C         3.26897933778949    1.56353746166126    6.25841152145514
H         3.81937786347895    2.11272331501064    7.02627384162423
C         4.23769751895295    1.10203278598766    5.14747962997034
H         4.10486405091039    1.67850532854649    4.23323809153225
H         5.26902423530724    1.22415833094406    5.48045945146550
C         2.67929756761500    0.26889372775758    6.85093537181952
H         2.65988021793264    0.29018334073848    7.93947584075578
H         1.65784744082923    0.13919107419379    6.49149526356254
C         3.94925383477321   -0.38413533537253    4.92567129552913
H         3.10582724805544   -0.50942013666813    4.22216331950706
H         4.81193555747219   -0.91744312797070    4.52790649697310
C         3.54871381094357   -0.86770435517415    6.31499332335441
H         4.44113853094265   -0.98005250679764    6.93244635677487
H         3.02093173178580   -1.82097354571390    6.29752625569952

