113
CSD_code = SAZWIC | q = 0 | S = 0 | Stoichiometry = C48H59CoN2O2S | MND = 5
Co       -2.44713622195541   -0.85964041090305    9.58143450073787
S        -1.86706452417739   -1.08266487158009   11.78022266343850
O        -0.87885795101899   -0.22582844438357    8.94554054824460
O        -4.12007586670520   -1.46632514827696    9.87098708285061
N        -2.09050030253932   -2.58639990784727    9.14125570236826
N        -2.92047334198597    0.89017853862054    9.65597833467164
C        -3.12018811592614   -3.43214240558903    9.28891346156516
C        -4.29171111765803   -2.73761071265444    9.72203698099213
C        -5.49101454756349   -3.45811556233496    9.94912781535914
C        -5.44647142354471   -4.81230952100957    9.72159663721277
H        -6.34259853652093   -5.38672684558160    9.88247220069412
C        -4.29454157375371   -5.51488680367077    9.29225223268901
C        -3.13032355792483   -4.82114842877737    9.07842054987064
H        -2.21837652813134   -5.29595737556443    8.75541642529874
C        -0.82410741440037   -3.07537072364000    8.77482390766104
C         0.07339545234795   -3.45991162784627    9.76511312791189
H        -0.24498314311480   -3.41252939377960   10.79598847666329
C         1.34573977098192   -3.87910596896589    9.42611193203644
H         2.04053448399076   -4.16999779271546   10.20007551727192
C         1.72533768177894   -3.92188010533897    8.09579303686332
H         2.72031895119981   -4.24282430128643    7.82508631193075
C         0.82734374920068   -3.55227447624496    7.10932206124751
H         1.12598355501968   -3.58924213437032    6.07104984556929
C        -0.45379643520499   -3.12782778975427    7.42627126204349
C        -1.43519618369591   -2.73149044687907    6.36574548350660
H        -2.23588920758294   -3.46919098035338    6.29361934028799
H        -0.94826539858789   -2.64884374000925    5.39715855303922
H        -1.89397779879779   -1.77301117971882    6.61726995669070
C        -6.72381273560528   -2.71572441761823   10.43392574896403
C        -7.94007665976785   -3.63129712864066   10.59269600046400
H        -8.20887580109081   -4.09537604322484    9.64604774116918
H        -8.78968976470028   -3.04239933991929   10.93171716386198
H        -7.75388706435559   -4.40682332944563   11.33223083700997
C        -6.39838365188489   -2.08577782806747   11.79481794048156
H        -6.15043647490292   -2.85865097011192   12.51964209087750
H        -7.25466608570657   -1.52360836071368   12.16114113853487
H        -5.55365932879273   -1.40992772101568   11.70536460908725
C        -7.07271234196514   -1.61007358276371    9.42826570423725
H        -6.25150032552076   -0.90578091434404    9.33828138734080
H        -7.95336126454803   -1.06575831558853    9.76244675764102
H        -7.27920896328153   -2.03878985985660    8.44906901676540
C        -4.40255824695681   -7.01853583574766    9.09227142974568
C        -3.08012567542664   -7.64485569796336    8.64132864282660
H        -3.21028311083478   -8.71818504779064    8.51877478955387
H        -2.29950296930113   -7.48245224346149    9.38050873008712
H        -2.75706122276026   -7.23451837630262    7.68747383733566
C        -5.46016747968815   -7.31010476574717    8.01798597009139
H        -6.43823164455338   -6.93838673460034    8.30972645000361
H        -5.53917700393999   -8.38260483904056    7.85337429740598
H        -5.18175203493380   -6.83637468786559    7.07892929827664
C        -4.81183824035859   -7.67479146339504   10.41852783021054
H        -5.78004166362728   -7.31896015664243   10.75861775945043
H        -4.07700873517986   -7.45121293878142   11.18870836588476
H        -4.86995243827631   -8.75453064603857   10.29825915490260
C        -1.93983998960496    1.75376360533333    9.34063631871514
C        -0.76264927885380    1.06338055443143    8.92125591600044
C         0.37182079667269    1.80244116755613    8.50377822280554
C         0.28191754189215    3.17085715441445    8.60026282294493
H         1.13263299603728    3.76021190641117    8.30439128533761
C        -0.86074828491687    3.86875949251599    9.05586517757105
C        -1.97772732145650    3.15610475082504    9.41150610041220
H        -2.88505412298333    3.62667485251621    9.75378535136615
C        -4.19209285855150    1.37195445226782   10.01139697468414
C        -4.62567519111057    1.28254446953801   11.33048736426633
H        -3.96831077842707    0.84982805711624   12.06981063289679
C        -5.88775373687343    1.72248521885749   11.68138116180930
H        -6.21373482700729    1.64880616900749   12.70803289211394
C        -6.72848512558355    2.24919585329170   10.71682166724546
H        -7.71656914812514    2.59331325766574   10.98423631803758
C        -6.30617072799138    2.32035991225940    9.40036668759180
H        -6.97196003745238    2.71234442443108    8.64421742943865
C        -5.04474033306678    1.88591653747495    9.02421912036129
C        -4.60671986777467    1.92095688961976    7.59138145005696
H        -5.45294893328149    2.11243668890113    6.93599021171509
H        -4.15381280753548    0.96642696483196    7.31597733642284
H        -3.85851804481379    2.69832377162864    7.43030416573010
C         1.57189216161675    1.07489990681766    7.92156797258951
C         1.10405850822740    0.32398802589716    6.66660481737609
H         0.35266209791002   -0.41239867670004    6.93300236016211
H         1.94295974741932   -0.19274745463024    6.20537824744966
H         0.68015833745743    1.01753817636557    5.94218128575389
C         2.11340635396997    0.06469194405199    8.93864276096552
H         1.33702270887112   -0.63391576869161    9.23480849030981
H         2.47371167887745    0.57976606791567    9.82586298662429
H         2.93467639658972   -0.49985994380205    8.50185632332958
C         2.70583897133730    2.02586051258279    7.53062088805777
H         3.53746894930221    1.44722073601049    7.13411731928272
H         3.06468034530357    2.58100094145311    8.39450873295620
H         2.38695375085562    2.72535954967392    6.76086614568230
C        -0.80637043915724    5.38785635258679    9.11333215622357
C        -2.12622601125025    6.00308331008882    9.58752007092144
H        -2.93950433265194    5.75625544405388    8.90897149553622
H        -2.03083830530959    7.08659108416675    9.61831053493538
H        -2.38216023569949    5.66043743060903   10.58721756966641
C         0.29765247180034    5.81563008704193   10.09006349048636
H         0.06808303752323    5.46081076686593   11.09232863474748
H         0.37204383688613    6.90075130402259   10.11860644145043
H         1.26423112159079    5.41366941722305    9.79978520781466
C        -0.50230084435222    5.93851275217398    7.71229655247766
H         0.47299475446312    5.61653186791473    7.35897361272012
H        -0.51427137356057    7.02627048696977    7.72860990951136
H        -1.25276093134741    5.59622917480952    7.00276053249006
C        -0.49361119598891   -0.00044644990423   11.98279535195232
C        -0.67536772593475    1.37745147333690   12.05971411440731
H        -1.66846036693519    1.79275433796660   11.98826676775999
C         0.41291454577100    2.20856440123890   12.24659871481666
H         0.26616938909153    3.27761993220330   12.28905968824039
C         1.68174276856563    1.67542556637048   12.39460325002932
H         2.52901981160800    2.32791695415392   12.54779960959788
C         1.86011608068901    0.30094827563189   12.35591162059733
H         2.84623360952257   -0.12105509640751   12.48683623828062
C         0.78189607441131   -0.53462688122914   12.14062703092373
H         0.91599080756203   -1.60409235456961   12.09707182541760

