63
CSD_code = SAZYUQ | q = 1 | S = 0 | Stoichiometry = C29H25N8Ru(1+) | MND = 6
Ru        6.17183908415343    1.25498561027229    8.73351183306732
N         6.42653493053690   -0.55138329920268    9.62350446846917
N         4.28170389543272    1.29995640836317    9.35809309541769
N         5.47275546450594    0.66083926939244    6.90286489502664
N         6.81832821063714    1.87655404475502   10.54233525321216
N         5.93265523479283    3.13020296711009    7.96451413145673
N         8.07309472690555    1.18208751368920    8.02869882274951
C         3.30971974181020    1.71622315980603    8.52759435538181
C         6.36303062248344    2.11971014754996   12.86065112748720
H         5.76292094745125    1.89319951557569   13.72347671458810
C         5.86278008713178   -0.78080782895548   10.82218664594781
C         4.73251101167968    3.49013667168812    7.48263617209031
C         6.02066196391625   -2.00321862972587   11.46520933609145
H         5.55237657740173   -2.19999683017960   12.41254574541265
C         2.63076739922143    0.63048194619821   10.93894664237655
H         2.36289474015024    0.21576033878214   11.89271368267958
C         4.44657573692310    1.32457283549896    6.34524173888333
C         7.40528772169216    3.02200386985463   13.00005269556717
H         7.59191189438075    3.49585130938438   13.95015600646979
C         3.95278757216013    0.79140843641274   10.55593060252150
C         3.72748350931179    2.36835438592176    7.20792219533195
C         6.11138220499223    1.52471371544712   11.62963566286844
C         6.89136947658132    4.06113600166557    8.02502940404285
H         7.87830733601824    3.72573682122528    8.30328283464772
C         7.88809649325416    2.66102236662647   10.70675019210362
H         8.53195262019088    2.76917496348270    9.84567770718822
N         8.41341316186224    1.49758567165174    6.94994443476151
C         6.09565476740819   -0.26562401255634    6.16651678027154
H         6.91288093082608   -0.79220488127064    6.63383365669913
C         2.50343234287133    2.92330671867249    6.47055875006444
H         1.83894357149268    2.11652313901888    6.17273671738966
H         2.81212660399177    3.46113974987251    5.57817641385226
H         1.95184892012911    3.60748219447394    7.11019122186948
C         4.44556872584946    4.81822867524672    7.19032477744886
H         3.46884952668396    5.11654266059911    6.85456404192932
C         1.62283559324934    1.00546558291584   10.06894080655920
H         0.58757313372384    0.87362136650628   10.33703617800784
C         4.56445991404814   -0.03370380100338   12.85203014435311
H         3.91732373585148   -0.90218190659522   12.76778542675314
H         3.99124393705632    0.77665618759243   13.29498060784059
H         5.38781403181294   -0.28208443484821   13.51671882692358
C         8.22440387041287    3.25117058898457   11.90710024381948
H         9.10027230888487    3.87435495139413   11.97870250426792
C         7.24166900314772   -1.48593788480866    9.12239576861567
H         7.79456379484091   -1.21318079075890    8.23492823830145
C         4.06413632236414    1.08360432154432    5.03063862943934
H         3.25731487439577    1.62919836635771    4.57613362909648
C         5.09921308812527    0.37960141456566   11.47642864131507
C         5.76700381775144   -0.56258061086721    4.86033194652539
H         6.32189422156392   -1.31297239724585    4.32257075952749
C         6.69171879039222    5.38937773867089    7.71103716553695
H         7.51022588216959    6.08687269524673    7.77355534521389
C         6.80002358017390   -2.99678003862785   10.89696127500944
H         6.91247353953351   -3.94983076841522   11.38796109180967
N         8.85334058318601    1.77519495371840    5.94019623139823
C         5.42430412000542    5.78889601197689    7.32420752424479
H         5.20354962788933    6.82063196002599    7.10316222664643
C         1.97059600588723    1.56460417639726    8.85262762403287
H         1.18806924205985    1.86685324989980    8.18206602503677
C         7.45713078193519   -2.71397409358294    9.71149994645436
H         8.12548036578253   -3.42399783431331    9.25332538197750
C         4.73008267853320    0.13774320844403    4.27026034653228
H         4.44283540039254   -0.04060783952273    3.24670870939263

