58
CSD_code = SCHXCO | q = 0 | S = 0 | Stoichiometry = C27H24CoN3O3 | MND = 6
Co        5.89990947632724   -3.40632687124103    0.76523342215289
C         6.06161967192526   -1.96478754676816   -2.21682729073550
C         4.72473484272242   -2.53684587842330   -1.73999265195982
C         3.50100485555930   -2.06174580744145    0.20462555373972
C         3.03393612135475   -2.26746098633837    1.52611178159485
C         1.93854796625195   -1.53201648186752    2.01059954290732
C         1.38661011689265   -1.80104732925389    3.23481435975809
C         1.90615767783468   -2.84877906013714    4.00494255785529
C         2.96098821132171   -3.59666701066231    3.55841230730680
C         3.58979153724186   -3.32391845010320    2.31545912195542
H         6.17873545031498   -0.94930999523542   -1.83263450550457
H         6.05768947700984   -1.92465579676092   -3.30818196134400
H         3.91496540438209   -1.93380216827372   -2.18391361800109
H         2.82928520719627   -1.50385018377107   -0.45596713259056
H         1.54134296998730   -0.73370100013578    1.39766807359156
H         0.55553822339117   -1.21971028915733    3.60422721750410
H         1.46642761821821   -3.06559621502983    4.96849826834644
H         3.36777443467273   -4.40361209478430    4.14903561666280
N         4.59029757292818   -2.53752836998084   -0.30000794877276
O         4.55949481718288   -4.05937042541339    1.92389989786927
N         5.80233327076439   -4.97492537668151   -0.29996326715195
N         7.30715558839254   -2.70661069553239   -0.29997031823809
O         7.13577214397883   -4.24058932921933    1.92379855165579
O         6.00453789669425   -1.91887995340747    1.92380972329978
C         4.57066518787546   -3.98714569165562   -2.21681976915944
C         7.24056637282866   -2.82336289272890   -1.73995645005314
C         5.73452167763037   -4.85887859131664   -1.73995189502232
C         5.93500081455993   -6.15615737148900    0.20468887648335
C         8.26386987330277   -2.00122168423027    0.20471362800588
C         6.98377679684709   -5.44808727160174    2.31542341345767
C         7.12631943843499   -1.44692110388721    2.31546302945530
H         3.63267558054739   -4.39344669053030   -1.83261875490878
H         4.53788443535624   -4.01064748476768   -3.30817297603929
C         7.06755331434574   -4.26716901687647   -2.21679376018140
H         8.16771630059205   -2.42360505595166   -2.18384774059484
H         5.61716377737087   -5.86169534402445   -2.18384425874303
C         6.34677861241346   -6.45775527106272    1.52615686676737
H         5.78771677902849   -7.01684897237708   -0.45588236019536
C         8.31921667690218   -1.49387126149800    1.52620561094338
H         9.08291525733916   -1.69846427839408   -0.45584792155944
C         7.53448574091162   -5.85619950445381    3.55835923124804
C         7.20448797581073   -0.76601625856631    3.55843842397023
H         7.88841587462695   -4.87633228785006   -1.83257767101550
H         7.10429583798583   -4.28383380775425   -3.30814573371882
C         6.25769048623495   -7.77411010425384    2.01067065440529
C         9.50384038176566   -0.91306622107160    2.01077500023011
C         7.41433591992047   -7.14365593067032    4.00491826225589
H         8.02991296189423   -5.10039466304769    4.14893710458191
C         8.37961524664420   -0.22656692677817    4.00505488535745
H         6.30222977635400   -0.71475495818206    4.14900802216883
C         6.76677372623553   -8.11752729414976    3.23485036181494
H         5.76495649878180   -8.51730784974935    1.39777961213635
C         9.54679371799599   -0.30058261190881    3.23500447190178
H        10.39383687137322   -0.96830850255374    1.39789788176808
H         7.82206674082897   -7.41602599122866    4.96844464969564
H         8.41169723290387    0.26263988062975    4.96862096848852
H         6.67897774042416   -9.12792951684686    3.60428184723465
H        10.46579582138754    0.12838784644707    3.60448918691893

