80
CSD_code = SEBBAD | q = 0 | S = 0 | Stoichiometry = C28H38BIrN6O6 | MND = 6
Ir        6.77282601885763    1.34767921717299    3.48515047169940
N         6.69418898935529    2.61467196445872    1.69831931260506
N         5.53130573184113    3.20530195597718    1.39303099313603
N         4.79882488205383    0.65424963310047    2.93508523624576
N         3.95006444030260    1.58520076599271    2.45657496748879
N         5.56583086219127    2.87765880374858    4.51580485569457
N         4.73073512075738    3.57512634846945    3.72321683047952
O         8.58666445075672   -2.89663362354185    2.31515010194052
O        10.64145491217579   -2.28960870446828    2.93573269000838
O        11.17862348147679    3.33623847405290    4.27225959428241
O        11.78439930851837    1.41909620630431    5.25882275825392
O         8.31345510804038    4.44248355504339    3.37478199738077
O         8.80809386601193    3.91317889824548    5.49706625646725
C         7.59267992915245    2.96761943850343    0.78562402770400
C         6.97793071967538    3.80543912761061   -0.14846796436188
H         7.43210738755567    4.25827603535294   -1.00620854096889
C         5.66918663320470    3.93935668939879    0.27397527286560
C         9.01844796454815    2.55499558522184    0.81101434969213
H         9.13579258801777    1.59454079989117    1.30626587032021
H         9.59323760644194    3.29363789989863    1.36876527843459
H         9.41150480911187    2.50050725846020   -0.20208118817322
C         4.56956327126606    4.71949698534995   -0.35194120072301
H         3.72581093383891    4.07510987286814   -0.59374421144512
H         4.93149607996388    5.18368132919779   -1.26550109347840
H         4.21706260467712    5.49916430871952    0.32106401652883
C         4.15998538692601   -0.51550994933351    2.94429410006344
C         2.86573216218079   -0.32930324689000    2.45537651580386
H         2.10698503987684   -1.07586615393955    2.33686958929806
C         2.76860590233603    1.01682382917114    2.15786138569043
C         4.73364790894394   -1.80295066664752    3.41589136711549
H         5.81558862020939   -1.79704401974201    3.35478297094739
H         4.33986263422362   -2.61986221990915    2.81484623991030
H         4.44922703679921   -1.97855986631499    4.45299776563355
C         1.59715694553679    1.74609638184492    1.60562259067382
H         1.26267257709755    2.51906498465757    2.29529036555408
H         0.78244102619587    1.04545396234979    1.44214641339063
H         1.84761196157026    2.22216047864658    0.65939915415092
C         5.58797484663849    3.47629189123817    5.70644119649059
C         4.76704812917894    4.60524465275799    5.66405154307193
H         4.58319561639046    5.30035702914959    6.45856657546551
C         4.24043337388823    4.63583483463821    4.38681917838717
C         6.30174989086648    2.97369774305450    6.91026804745047
H         5.75341380262698    2.13911311196387    7.34617905783258
H         6.36243713666606    3.76901626413638    7.64994075084591
H         7.30289432084742    2.63490338248239    6.66578421310393
C         3.31075032322470    5.63582964575441    3.80008450729996
H         3.74851523857483    6.08905193668877    2.91250800628163
H         3.11059365066309    6.41481766360863    4.53133319546210
H         2.36779960643796    5.17187863328138    3.51478450790093
C         6.71980358572892    0.16298173547364    5.23262204006862
H         6.92747262442596   -0.89125434337212    5.06225332510833
H         5.72840366328354    0.22967598268986    5.67924661707974
H         7.44046482213314    0.49552125798790    5.97629453368402
C         7.75492157271028   -0.06772167207825    2.55990677290355
C         8.96053853401872   -0.63762252413337    3.04837284304632
C         9.85514885994264    0.08662089531134    3.82062008798565
H        10.79015114926441   -0.38284031900857    4.08852622856654
C         9.71202967683337    1.45383122117710    4.14251588775546
C         8.52605326425943    2.13747436614346    3.98657475625917
C         7.22485814435027   -0.62550905687469    1.27855892494795
H         7.97816212347936   -0.52581959682112    0.49558791625532
H         6.31506544491544   -0.13214248436856    0.95149500075497
H         7.03651144410103   -1.69318813639533    1.39110654002173
C         9.34086905874833   -2.03753714469605    2.71027520651729
C        11.05887688669307   -3.62636923512483    2.70626569254962
H        10.50548547474694   -4.31325469176186    3.34994186010437
H        12.12051441436311   -3.65652730099853    2.93719604584303
H        10.88427317188788   -3.90657275748422    1.66521237294413
C        10.94112424548707    2.18674262903441    4.55197484667605
C        12.98360596362269    2.04945163286355    5.68192054632907
H        13.55411178498953    2.39993711059591    4.81907349436588
H        13.54419916583515    1.29863888970254    6.23288366793722
H        12.75697116848148    2.90490486361366    6.32164449412541
C         8.54854644488430    3.60717353216307    4.21309594361365
C         8.86128365917216    5.29882417460132    5.79352213209490
H         9.70702018775479    5.75458253488723    5.27493038524819
H         8.98408714915642    5.37587578325356    6.87102693308490
H         7.93945279986381    5.78962359109713    5.47316598527702
B         4.32978957129331    3.07367908291336    2.32806758573728
H         3.41339310587761    3.69051085192218    1.91732141321871

