71
CSD_code = SEBCEI | q = 0 | S = 0 | Stoichiometry = C36H28Cl2O2P2Ti | MND = 6
Ti        4.12421710674842    6.43088570587164    7.34857561685346
Cl        2.55057568964718    7.20542294179429    8.72191211904720
Cl        2.82217159696240    6.14236773256005    5.60482655774015
P         4.37239910536995    8.84390236277992    6.59461398544782
O         5.69055878164723    6.35718195516788    6.48371480951334
P         5.88728425815003    6.91762479503915    9.22376093545127
O         4.20427451033272    4.85211527325339    8.07733134576147
C         6.39834426683273    7.24311627245401    5.81461626903303
C         7.58941382233404    6.89235999208804    5.16573287112313
H         7.90361081312127    5.85914670664687    5.18783623981542
C         8.33797953046566    7.85543834716739    4.52191528702673
H         9.25510247920735    7.57060026058297    4.02780229452803
C         7.93170512812329    9.18287805548819    4.50755745915194
H         8.53316570963122    9.92720319980609    4.00847615333336
C         6.74927209792989    9.54800086526430    5.12450486088574
H         6.42362151139130   10.57798439572945    5.11112231847003
C         5.97413271185003    8.59106463825199    5.76525907274465
C         3.55715264258556    9.16013777335522    3.90278315116987
H         4.50716499706554    8.72915629936747    3.61557100121714
C         2.62483625725172    9.50577236985480    2.94020860784049
H         2.85300507094148    9.35435782463589    1.89524386811989
C         1.39966247659234   10.03360798443504    3.31214906311342
H         0.67432054037634   10.29609133251636    2.55623452049969
C         1.09604402120910   10.21078251215905    4.65343887509978
H         0.13356548980695   10.60641518639250    4.94255039006449
C         2.02059373482837    9.86831136758780    5.62090009342622
H         1.79120495082446    9.98011432779916    6.67415051747368
C         3.26209894581339    9.35705366361596    5.24658390523357
C         4.61982148545313   11.65455721200045    6.84654168104524
H         4.48113375159985   11.70730022804989    5.77573056065928
C         4.80907714100252   12.81085158990598    7.58177439530063
H         4.84097310152049   13.76670984163109    7.07940715601061
C         4.95095065931366   12.74831219626662    8.95928265040666
H         5.09937402845264   13.65506347945569    9.52673229309023
C         4.88247956541321   11.52656964577004    9.60912981571768
H         4.96995465181332   11.47494812610038   10.68452091157132
C         4.69264550238742   10.36751289225095    8.87796385151569
H         4.59915037496763    9.40931302748553    9.37787611882236
C         4.58161957677278   10.42217455245216    7.49196963361338
C         5.01780506495418    4.32290193588478    8.95787089854671
C         4.99244863307540    2.95220732852448    9.25429511543078
H         4.28831555657137    2.32526385719885    8.72593908639320
C         5.84534730151990    2.42984350633764   10.20437476017764
H         5.81283451371026    1.37233067225876   10.42165093077509
C         6.73706710156246    3.24637370575177   10.88843053955766
H         7.39315933902864    2.82605931631944   11.63524239305739
C         6.77725217608187    4.60046984851634   10.61325301049657
H         7.46088960478517    5.24914863256472   11.14482312239754
C         5.93784149448311    5.14362619792836    9.64705391530685
C         8.48253818184462    6.26224877898144    8.29297391793295
H         8.21769828879419    5.22406793745532    8.43900907684297
C         9.71455395678656    6.59754636068558    7.75801912747612
H        10.41586226683155    5.81755092546504    7.49957682855359
C        10.04743901851969    7.92447177428993    7.54641156515896
H        11.00783808251668    8.18033366976347    7.12457206034696
C         9.14324750456037    8.92451450571051    7.86817774995532
H         9.39494820987900    9.96012287478213    7.69380923898318
C         7.91333452768695    8.59606219020535    8.40420018794679
H         7.19919443664247    9.37307290702844    8.65082774119573
C         7.57927320577195    7.26166999492522    8.63399463619403
C         7.03720333188619    8.07791678557227   11.56009837649887
H         7.99188072002548    8.06239725639070   11.05351476931733
C         6.94611750876611    8.56394054704666   12.85303586546664
H         7.83429877416583    8.92263840509699   13.35293645954997
C         5.72492688144668    8.58936523182189   13.50573094479454
H         5.66115911012221    8.96984699232154   14.51454865056983
C         4.58559452162097    8.12963325929706   12.86360018263858
H         3.63194216813239    8.15370614774224   13.36933570235002
C         4.66784896212768    7.64437443514470   11.57177353370526
H         3.78106487092196    7.29943790552994   11.05236701267391
C         5.89721659944928    7.61294918041819   10.91625134277264

