112
CSD_code = SEBDOT | q = 0 | S = 0 | Stoichiometry = C64H40N4O2PRh | MND = 5
Rh        7.47499164155902    6.17553554261891    1.66712837377172
P         6.09464417343199    5.19301522697726    3.19275853904577
O         5.27222436607917    4.09995821448137    1.99879634386324
O         6.71092301785971    6.13931380335343    4.61444955873359
N         7.72416393462318    4.49762430401937    0.57722840704160
N         5.91517773653865    6.71041605791859    0.51828295321431
N         7.41590503441824    7.98878000533947    2.54682369468299
N         9.10127926176106    5.68801548627674    2.74251132572782
C         8.68735293375391    3.54264977599070    0.73399803800151
C         8.53787519097559    2.53262612726768   -0.27267949671436
C         7.44688451388885    2.86156856532237   -1.00066706219939
C         6.93922521605665    4.09032301091773   -0.46268710504789
C         5.77606396538135    4.71393178896438   -0.90754423109792
C         5.30052282951096    5.92467551380017   -0.41166150500236
C         4.11702089482061    6.57700180326734   -0.89319589375603
C         4.02938774454810    7.76152866685213   -0.24664470523088
C         5.16625642632803    7.84715131923195    0.62347883315076
C         5.45859983767309    8.95530325183839    1.41565109140791
C         6.53384870863735    9.00148515612702    2.30040466372923
C         6.86297452746798   10.13918244809146    3.10862153274339
C         7.91533067197002    9.78276023753130    3.87929275464588
C         8.25553995597424    8.43494640589598    3.52631698226019
C         9.25180162578617    7.69257370009723    4.15567187904437
C         9.60892520470982    6.39751555337692    3.79078998287218
C        10.65607251330697    5.64806217171071    4.42315330903854
C        10.77414292284626    4.48518431566885    3.74299588418329
C         9.80963418663834    4.52238662236952    2.68221519582341
C         9.66753462145575    3.52128153551069    1.72383110070998
C        10.62789199651082    2.39906395891915    1.74276832548261
C        10.19585248592906    1.08569898898690    1.89775509150686
C        11.10815264803426    0.04638303642675    1.91716540645216
C        12.46146622424130    0.30135429543539    1.77157109560174
C        12.89915304569482    1.60471044954217    1.60582526543288
C        11.99025675710094    2.64681712061561    1.59431834965669
C         4.98485995401286    4.04381631734673   -1.96221153846420
C         3.70933273658754    3.56656314404474   -1.67586351337367
C         2.96503102634523    2.92810824216580   -2.65106892277164
C         3.48105572427455    2.76778116667169   -3.92637777845393
C         4.74509993123777    3.24976358629003   -4.22207340281887
C         5.49463721348561    3.88188718060559   -3.24606593753651
C         4.60108412550645   10.15066087514634    1.28287562143545
C         3.90863557953113   10.66367358921280    2.37513174076587
C         3.10664303773953   11.78150082875511    2.23337995170348
C         2.99261330640208   12.40871971071669    1.00404646167238
C         3.68697823830207   11.91117662373261   -0.08594443132946
C         4.48332859284235   10.78897123319613    0.05071002830608
C         9.96802299160502    8.30981052443559    5.29298022653969
C         9.82716969153528    7.78073951292159    6.57238396904671
C        10.48242748586528    8.35770317478966    7.64497777445300
C        11.29430089338244    9.46302597456017    7.45136336245420
C        11.44857396226799    9.98828976921794    6.17940876362618
C        10.78788528703664    9.41767230118857    5.10619053196900
C         6.81302598573152    3.68848891393504    3.95031833141225
C         7.64152411681350    3.54695697333400    5.03785514334341
C         8.16059913535580    2.27681946883575    5.32847072767085
C         7.87187080095834    1.17373441548119    4.56299364276155
C         7.02831472027403    1.28542753752942    3.43893562196505
C         6.52300319251078    2.56688326803927    3.16594995399354
C         5.67466670292894    2.83616532415282    2.06733055761796
C         5.33923164768461    1.80452349168876    1.22170370064817
C         5.84415859318583    0.52025093966824    1.48565907798679
C         6.65850445867864    0.24769941624267    2.55420194881286
C         4.50432627107574    6.07740716266612    3.39835574202299
C         3.32852042070312    5.97204603610751    2.69441115348570
C         2.29237718201247    6.87481058542881    2.97471215186597
C         2.41422695059768    7.85932003729750    3.92445028182391
C         3.60786670635599    7.99626394316202    4.66202854257629
C         4.63212280231739    7.08369337592723    4.36189305488711
C         5.88878404933949    7.10460683588146    5.00960479395115
C         6.12498165669920    8.06541328020119    5.96508073097400
C         5.10657396263974    8.98459167359092    6.26831135591470
C         3.88180487936783    8.96562617967013    5.65283836606947
H         9.18537830691719    1.68774046000733   -0.39839895151772
H         7.01891742631961    2.32596855761743   -1.82482474763503
H         3.45366803592307    6.18011680781818   -1.63644704814835
H         3.26702658448155    8.51003201107266   -0.33697884091441
H         6.35193448254402   11.08104285839664    3.08372740562175
H         8.41801263702314   10.37150610636778    4.62087414598520
H        11.22836267286221    5.98023330874494    5.26703551909297
H        11.44225229904951    3.66945923099033    3.93755412990847
H         9.14151622787061    0.88813557379092    2.01267924624186
H        10.76027390879125   -0.96845301790251    2.04484885982369
H        13.17214254458591   -0.51180818648639    1.78458772478574
H        13.95280219312706    1.81037260844742    1.48459629566110
H        12.33182769873478    3.66273005526204    1.45681862259336
H         3.31063640004396    3.69663116608833   -0.68014870111504
H         1.97850653020158    2.55531215355431   -2.41624152742122
H         2.89865480974347    2.27110290239937   -4.68828220427643
H         5.14898056006041    3.13306844668414   -5.21729022781342
H         6.47809087388761    4.26465626461503   -3.47833850009407
H         3.99645576737908   10.17332801609898    3.33205987876449
H         2.56902582334125   12.16599492986667    3.08798573119797
H         2.36759213938649   13.28284870249047    0.89584374350168
H         3.60835300191895   12.39954065210971   -1.04640704139600
H         5.03139453337700   10.40641739585184   -0.79836486819696
H         9.19479708648207    6.91679602002254    6.71741039221904
H        10.36060062142883    7.94327003737042    8.63530884221448
H        11.80745978723544    9.91205565915501    8.28887030454161
H        12.08629112739700   10.84611778993677    6.02244735052543
H        10.91351214829286    9.82279312625581    4.11234200191502
H         7.89330002819418    4.39007614744357    5.65910476680620
H         8.81309128097203    2.17228494632497    6.18353888797279
H         8.29520726862934    0.21123683898451    4.81284976147943
H         4.70036243714581    1.96816745669699    0.36889460616630
H         5.57145050695407   -0.27854779038171    0.81084224195132
H         7.02296933905710   -0.75430325698286    2.72773488823612
H         3.19772940640265    5.21481212005339    1.93963708245651
H         1.37125420977047    6.78849027304917    2.41623645561778
H         1.59711855427661    8.54209744971965    4.10934459349154
H         7.07144926291327    8.12029331768515    6.47830464593953
H         5.30916462830204    9.73329935742002    7.02078973514412
H         3.12139602028180    9.68616642877799    5.91658303289786

