35
CSD_code = SEBHEM | q = 0 | S = 0 | Stoichiometry = C17H14MoO3 | MND = 9
Mo        2.27466653515460    0.86709681989458    2.27401218430223
C         1.28333869952452    0.94499876320026    0.61842418423287
O         0.73399634429601    1.04300095245249   -0.37820113745042
C         2.30576208490859   -1.04988697999734    2.01161070256847
O         2.29996041671641   -2.18701469171021    1.89666574219800
C         0.56519612507322    0.56713157881487    3.12962749031192
O        -0.42947300540343    0.34872016760316    3.64856080675182
C         3.87384403768260    3.17779515852920    1.42628488124640
C         2.57908270026999    3.20791443567874    2.20184537828641
C         2.48613697098877    2.79232024686641    3.50736450406929
C         3.33547640311161    1.83286333382097    4.15638672067082
C         4.25457289113975    0.97948382940834    3.56523411017070
C         4.56846653493689    0.86006760846681    2.16855261408835
C         4.18183816965962    1.72208762855743    1.17200004150340
C         5.01308880948656    3.88790945909886    2.17509622390523
C         6.29212308876835    3.92315434827472    1.39604427715594
C         7.44860498185948    4.23704200855400    1.99272602017509
C         7.56163821616774    4.73391783423305    3.33414999152602
C         6.66174543824778    5.55107326229004    3.92699359735775
C         5.46722621507889    6.03724792782221    3.29782025093194
C         4.73467909171521    5.33916900995423    2.42144630375087
H         3.72477550323262    3.68348801876238    0.46551509812468
H         1.82290345114172    3.90331593385030    1.84845115611441
H         1.67487106433747    3.18659983998272    4.11911799199862
H         3.20765923648650    1.74168260652875    5.23362125763105
H         4.77352629822576    0.28766420328757    4.22648870508250
H         5.13810889105484   -0.02717848397866    1.89260555038944
H         4.45949647188581    1.45975950054667    0.15496497512459
H         5.20516259068831    3.39954457502245    3.14132574950017
H         6.25409066237649    3.67984916980609    0.34376798917198
H         8.37410142619968    4.14782074730933    1.43879312893975
H         8.50214126375714    4.55027980567122    3.83808051507463
H         6.91558910681626    5.99061777082774    4.88333625715983
H         5.17872257594646    7.05098800749822    3.54370280120871
H         3.92168070846793    5.80077560307275    1.87938393672610

