52
CSD_code = SEBHUD | q = 0 | S = 0 | Stoichiometry = C25H22ClN2PPt | MND = 4
Pt        7.67394009946964    0.51231586636376    7.66505531896586
Cl        8.60278904635208   -0.78570412908468    9.24920152053817
P         6.56198742101885    1.90655258818045    6.28245178590564
N         6.57917423718376    1.73329256733330    9.20717189815206
N         6.88867708486117    3.45035491403839    6.80328226337073
C         6.03859705836431    0.98570282471882   10.16349289746960
H         6.42175213193180   -0.02434351496827   10.24544566875909
C         5.06106028456911    1.45338968881733   11.02462623013421
H         4.64900397872215    0.80075974597052   11.77731613517310
C         4.62740176388952    2.76376070770108   10.89327006566113
H         3.85512413276633    3.16191126343175   11.53408729389091
C         5.21732151364210    3.55804974029724    9.92677617594925
H         4.92063329165211    4.58696819862036    9.79148096048741
C         6.19353295762887    3.00997579985180    9.09723810809832
C         6.76934954488047    3.84537153056306    8.01920448603713
C         7.19343098646639    5.20482177740339    8.35151013711188
C         7.58229935036583    5.54710375111594    9.64796463711013
H         7.57509265983266    4.79983507382987   10.42794353036322
C         8.01022137425538    6.83062516560310    9.92918498349573
H         8.31674301462495    7.08463864501250   10.93298992171754
C         8.05231130089393    7.78829899778629    8.92849701160159
H         8.38363833964279    8.79082067352288    9.15431762467759
C         7.67522774725747    7.45522515806984    7.63629061773238
H         7.71240173223268    8.19927688259885    6.85453760371008
C         7.25363405273874    6.17337103499933    7.34685470995892
H         6.95596326725109    5.89902529012011    6.34647268907278
C         4.77020019462237    1.67579502478559    6.55184336924708
C         3.85616670521583    2.66688035494061    6.21809656330350
H         4.20421417835130    3.57131849784860    5.73757074666409
C         2.51540917749049    2.48582246519917    6.50551470715955
H         1.80057149173361    3.25410108746942    6.24896850591985
C         2.08840777638542    1.32034048169748    7.12293061242196
H         1.04067392464621    1.18451922657066    7.34735975070803
C         2.99956480901955    0.32903519981093    7.45170355185216
H         2.66284995230838   -0.57918827680240    7.92938873544459
C         4.34142666958458    0.50704062612720    7.16813500634637
H         5.07807422277002   -0.25602622986613    7.41686741013937
C         6.69308844308802    2.14741993694771    4.49290030290401
C         6.00337683594376    1.29756698616923    3.63539720953484
H         5.35650904042775    0.53505453382393    4.04897932756060
C         6.14404518285958    1.43694099591784    2.26727954399410
H         5.60464826937368    0.78135462176454    1.59932812701200
C         6.98029627066177    2.41546432678243    1.75287636899515
H         7.08953312953616    2.52230132052968    0.68362345885866
C         7.68148565921113    3.25145715387078    2.60705874235969
H         8.33881263913567    4.00751050770623    2.20261224534388
C         7.54589756672386    3.11459960753429    3.97647789158860
H         8.08950624695798    3.75170903007128    4.65874687087280
C         8.55511239083736   -0.58140557653906    6.18657450903523
H         7.81455481391456   -0.91198487222881    5.45089810662499
H         9.07693906520209   -1.45648672533530    6.57394910744242
H         9.27902697153505    0.06035945331770    5.67225495352142

