50
CSD_code = SEBHEN | q = 0 | S = 0 | Stoichiometry = C25H19ClN2OPRh | MND = 4
Rh        1.11126127067544    1.53412701592814    2.65010083378371
Cl       -0.58456021495158    2.65356515951406    3.63143606268957
P         3.02222945798674    0.51245470921534    2.06118235221606
O        -0.70944330013709   -0.58087829182825    1.61298546637683
N         2.35658012419786    2.98222867202828    3.24348716868116
N         3.91761420578027    0.49138431312971    3.47524112837732
C         1.98911555966235    4.19693642075470    2.82540333263730
H         1.01761843601532    4.27048477315308    2.34743270653282
C         2.77173070505173    5.32411235744731    2.99824953349551
H         2.42451792911405    6.27787543442442    2.63470198724137
C         3.99155890071516    5.20335679938370    3.64576929224177
H         4.63007372796865    6.05941011105052    3.79995092319042
C         4.37128665388416    3.95081264080804    4.09397442966950
H         5.31710448663652    3.80253104670333    4.59216964888237
C         3.53614352541207    2.85837737448717    3.87656693772074
C         4.03013298282990    1.51092463172295    4.24539788349818
C         4.72237166821302    1.34772058431556    5.52337641477753
C         4.42247222467496    2.16414525782694    6.61541523861507
H         3.66971724146392    2.93318899490732    6.52260153904494
C         5.05869725590956    1.96498982789593    7.82596519439966
H         4.81544595869791    2.59533361775297    8.66821847211035
C         6.00113549791375    0.95828527246666    7.96265365081573
H         6.49886602417840    0.80996539077694    8.90925475201120
C         6.29816385602092    0.13712194521208    6.88543953010270
H         7.02768042022654   -0.65169662247931    6.99302172681807
C         5.66048412079505    0.32471788533209    5.67577141620928
H         5.88023565590895   -0.30596367918685    4.82809787359950
C         3.26141550929651   -1.20087225685435    1.52500431740715
C         3.04945732142039   -1.51467899044568    0.18654387517932
H         2.79499540457759   -0.72482354954356   -0.50890491571454
C         3.16681092704542   -2.82295019057303   -0.24252686470212
H         3.00693110922302   -3.06751498756672   -1.28245805414297
C         3.48408256304592   -3.82227436301575    0.66463794468557
H         3.57332584942420   -4.84496731825038    0.32874120514362
C         3.67774134072019   -3.51358025606766    2.00120009106105
H         3.91535443052449   -4.29668489890032    2.70663555091340
C         3.56058500956967   -2.20545116560087    2.43580782910887
H         3.70060216443317   -1.94770058039376    3.47553404545172
C         4.09515582481275    1.43230543904117    0.90027963697179
C         3.53880585437264    2.46886082588615    0.16273224949035
H         2.47420122640425    2.67106413944703    0.26087952675992
C         4.33405445538343    3.21455253628585   -0.68868659759506
H         3.90359498842468    4.01923012812299   -1.26664349468072
C         5.68471335580920    2.92517859854214   -0.79864643437980
H         6.30746314284569    3.50768758339326   -1.46150134006531
C         6.24020862757225    1.88862667365453   -0.06398451000409
H         7.29301011143982    1.66523056550890   -0.15729070222851
C         5.44826261234714    1.13953665098388    0.78663044230071
H         5.86523926559888    0.32650611962224    1.36496984474123
C        -0.02894546913523    0.24360765398634    2.02378085855192

