83
CSD_code = SEBLUH | q = 0 | S = 0 | Stoichiometry = C24H50N5ScSi3 | MND = 5
Sc        0.90760445881963    3.56218096024997    3.86765767811758
N         1.69065341353397    3.55386074869946    1.62100277234702
N         2.92892578950320    3.07174862413837    1.40922823858110
C         1.07499134240114    3.54487842570088    0.43605994494167
C         1.93064078628184    3.02694863463892   -0.53865487420824
C         3.11144842724643    2.73478709550045    0.11720674096453
C        -0.31047895906774    4.04429288255189    0.23707495453982
C         4.36978887140446    2.16389778357636   -0.42800456968452
N         3.01506421651942    4.89155184540671    3.72901710929223
N         4.03721346621157    4.31066640983316    3.07341811959576
C         3.48511828320839    6.04823744869017    4.20083813938933
C         4.83195345510919    6.19286595194310    3.85534744032585
C         5.15474574736722    5.06334395444020    3.13121989513380
C         2.66667251954987    7.02741504553710    4.96260556667597
C         6.45096022613206    4.69113637361216    2.50713649867792
C         3.91676459555969    3.02455571757361    2.45146511407776
Si        3.68831910829230    1.59020847033593    3.79255754882240
N         2.18233817488282    1.87272216159289    4.45321416395902
C         5.29449630560792    1.82736670739321    4.83340551906300
C         4.07631199250350    0.03475612057630    2.72271059639267
C         1.69173462699185    1.10902391394922    5.59643136104125
C         2.26248141309368    1.65755055610479    6.90874946877155
C         1.98693804828466   -0.38694430033678    5.49244557868502
C         0.18366213735703    4.69794606197113    5.72261703035373
Si       -1.08414058615936    6.06267572100006    5.45696285213354
C        -2.88083991013185    5.42296117049998    5.62509214702649
C        -0.94021694452000    7.58054742285056    6.63078824283368
C        -0.91083612222855    6.76874236121938    3.66480346265490
C        -1.14123564356160    2.64470805528481    3.37441333897284
Si       -1.33433018812934    0.95253469452990    2.56834287916987
C        -1.72213355312906   -0.40471984524382    3.86627900121932
C        -2.75024058485475    0.83641084794896    1.26655323505492
C         0.26819725302241    0.40279530264352    1.65941472218593
H        -0.27053261882555    3.95601699657586    6.39865646819536
H         1.04857835688281    5.09774124351080    6.27245334303563
H        -1.71429204109456    3.38829838575769    2.79932604594320
H        -1.65295610929776    2.58990771480674    4.34907438923744
H         1.71887322971581    2.88373140577856   -1.57849883964020
H        -0.53794419118885    4.83382730797685    0.95060391772198
H        -0.42302997647970    4.42649838099925   -0.77540281574222
H        -1.02346621315590    3.23475232372684    0.38506956979080
H         4.24025538415979    1.96085152995943   -1.48745625904821
H         5.20322021662384    2.85817140600864   -0.31184593210874
H         4.62409450777265    1.23317686436647    0.07640325248452
H         5.47890530472714    7.01113559173644    4.09728294595261
H         1.62458800370426    6.96943196318004    4.66201353802347
H         2.72887537598480    6.82293136248506    6.03139476966042
H         3.04501279230752    8.03276670127521    4.78893563756982
H         7.17144761005099    5.48515615703765    2.68360897547051
H         6.84207291612703    3.76930723892161    2.93608637621210
H         6.34638465769448    4.55603133559671    1.43002885697492
H         4.86805776749186    2.82262752449249    1.96404210719636
H         6.20018856276362    1.76871456651669    4.23452734286796
H         5.29852093484219    2.78432286186307    5.34913079833244
H         5.37029177481040    1.05497901713288    5.59254910955727
H         5.06233007554750    0.08303923173423    2.26551950736600
H         4.05352804274367   -0.86261166778436    3.33142068955966
H         3.34770496915967   -0.10428132013074    1.92910289630803
H         0.59586093611995    1.23260664484354    5.62520396360096
H         1.79397046553755    1.17301134126466    7.76244364856794
H         2.08473532298416    2.73007577739463    6.96689623809606
H         3.33413939975364    1.48010171948710    6.94462517577650
H         1.48506843275344   -0.92994123535519    6.29056118060066
H         3.05745735584686   -0.55962519535069    5.56947595705522
H         1.64093081352317   -0.76519053769699    4.53504196735123
H        -3.60673686744345    6.20402529842532    5.41897652455551
H        -3.07388736186856    5.05334199479821    6.62704152012100
H        -3.06660527938142    4.60771329069293    4.93328128602578
H        -1.67631509111952    8.34289279870895    6.39319378445533
H        -1.09469867218002    7.28956043974727    7.66505128691073
H         0.04027119728615    8.04331617399787    6.56667181072346
H        -1.86084841626950    6.74839842628585    3.14016203215254
H        -0.56336151197114    7.79717560989198    3.65555445506667
H        -0.20214223496090    6.16784372913510    3.08509620687933
H        -1.76528997144840   -1.39286005481702    3.41773838337595
H        -2.67671934917419   -0.22441518249829    4.35096695203486
H        -0.96113638735233   -0.42730087268343    4.63912741622847
H        -2.83762920471902   -0.16746107443094    0.86189768873634
H        -3.70775387043560    1.09417899297178    1.70835704963101
H        -2.59028422620165    1.50859226334511    0.42796830374995
H         0.30527129642649   -0.67448797836476    1.52415284863385
H         1.13391574991320    0.69667452455308    2.25048771619108
H         0.36150597419305    0.85499565759999    0.67579999547721

