55
CSD_code = SEBLAN | q = 0 | S = 0 | Stoichiometry = C30H18NiO4S2 | MND = 4
Ni        5.57811473769388    3.27728557440021    2.85807051888232
S         6.20355914852131    2.10728016401342    4.56375229098593
S         6.24326908773000    1.85962164393421    1.36896917105453
O         4.90876726873014    4.54513329294701    4.07816154736471
O         5.05679703403700    4.39789140350274    1.43787278582505
O         4.71628185624282    4.98840240531740    7.63214148703765
O         5.06525970545105    4.34326608649047   -2.14841448748612
C         5.02202297667747    4.34951801327877    5.34763253546870
C         5.66958122200844    3.15637482389278    5.79317938262021
C         5.83099927954399    2.90581165450406    7.18010945546969
C         5.32830443436097    3.87865481553889    8.06795605867525
C         6.45611522711222    1.76439661944170    7.71011067172472
H         6.83648597593772    1.02761842035137    7.02006124242954
C         5.23053897774892    4.02377785315799    0.21618912542485
C         6.01001534020921    2.28089345046035   -1.34948723406092
C         5.81559235628386    2.74226052662465   -0.02217894327553
C         6.57191514834357    1.03600378507998   -1.67966580206348
H         6.87905325930851    0.38817280493636   -0.87364186178095
C         4.54405829636656    5.24890920615964    6.31751464383419
C         5.60318594900036    3.13990055585348   -2.39064701615132
C         3.20661524936486    8.71039906695100   -0.78336606713971
H         2.78539564651141    9.70475211156570   -0.76322804383540
C         6.07123900959563    2.57686898038135    9.93859841097450
H         6.16944951093895    2.44017593529711   11.00452787915343
C         5.75902828694511    2.75103938618905   -3.72584612702696
H         5.43962659504400    3.42810842449684   -4.50230772091994
C         3.84459281291271    6.49096814148865    6.04365276380148
C         4.29650445550062    6.13973651220513   -0.83565198474659
C         6.71886735774164    0.66830379247107   -2.99166841892818
H         7.15083236718416   -0.28876528707221   -3.24017751834724
C         5.45483725861334    3.70287442491529    9.45047555629369
H         5.06064233127930    4.46280869347632   10.10654283978492
C         3.43386597219283    6.83608630885067    4.75029860769295
H         3.64947231375576    6.17156303927036    3.93019517442839
C         3.55357233773995    7.36950180022289    7.09725196288108
H         3.86657923019472    7.11816866669523    8.09884368083967
C         6.57296488209711    1.60520988908165    9.06627594750233
H         7.05407889558122    0.72708172725559    9.46846447022640
C         6.31129048743238    1.52783983377980   -4.01725610985102
H         6.43230078625951    1.22697244303035   -5.04653975601435
C         4.18226758427651    6.84085705176600    0.37098337175727
H         4.51988632236319    6.38181542960416    1.28523839390939
C         4.87390746268711    4.80929003594269   -0.89462139461092
C         3.64636762675960    8.11335196615410    0.38716770200190
H         3.57703348040995    8.64744082417525    1.32326204949948
C         3.85190105940096    6.75559448368624   -2.01444637138756
H         3.93119958763996    6.22640510331296   -2.95155737754570
C         2.75208346301115    8.01643785642633    4.52969594114564
H         2.42912315633035    8.26305242931540    3.52905645200031
C         2.87941158466135    8.54909190863082    6.86242609782970
H         2.66709724532869    9.21739564989129    7.68424241786522
C         2.47292905378535    8.87850286537135    5.57804825160534
H         1.94185390972300    9.80161652167010    5.39809270124431
C         3.31090663852365    8.02345372177495   -1.98363017318804
H         2.96855875692628    8.48212716183737   -2.89992918087597

