39
CSD_code = SEBNEV | q = 0 | S = 0 | Stoichiometry = C18H16BrO3Re | MND = 8
Re        1.04233608393090    2.28243177785203   13.86502514057598
Br        6.24313145033721    5.02377939404049    8.59488782459410
C        -0.03851635486246    1.22475871285171   15.08704462301791
C         2.21049686275619    0.79100240534082   13.42187148719384
C         2.45740712058496    4.08165147084454   13.34909623141485
C         3.37125706770657    4.27745353295115   12.21181554792939
C         5.07110785234329    4.71764246119275   10.06995406662405
C         5.34895037036687    5.30643973510326   11.29143516014299
H         6.21975134941249    5.93324441266038   11.40800284810201
C        -0.14232726609700    1.94277609874817   12.36198752652368
C         4.49654984162749    5.08596530955158   12.35641458381549
H         4.70199713207175    5.55598685051328   13.30702846657651
C         1.11939369256144    4.60034817575015   13.41611122501258
C         3.95947904703653    3.90956900160442    9.90094654317618
H         3.75860048796451    3.45059429925819    8.94532246847060
O         2.97842229064083   -0.02188294828758   13.17123029011651
O        -0.83518066479317    1.84227145073327   11.45309758892148
C         1.71617858821538    3.85696451325598   15.53001197603628
C         0.45406391510360    5.42248717298791   12.35516712148375
H        -0.60976615516301    5.20044325994891   12.28121269328072
H         0.91255789361565    5.24927781627337   11.38328749789292
H         0.56040512476346    6.48207950423396   12.59913237700314
C         2.83126481359948    3.65176516404858   14.66968903944100
C        -0.57903817002669    5.07761405859794   15.32153474196669
H        -0.34693839520730    6.09490515460852   15.64576800990900
H        -0.95487832679716    4.52603561599334   16.18168150968359
H        -1.37129230678510    5.13153471245335   14.57703387220791
O        -0.66820866461304    0.68414553874358   15.87728536992971
C         1.74394079532330    3.75070053260990   17.02370983401796
H         2.43158291744622    2.97240747615634   17.35009514773513
H         0.75701398021086    3.52691421722769   17.42536095271526
H         2.07668005277042    4.69924482587040   17.45185937075607
C         0.65104697967171    4.43505847871543   14.75524930615870
C         3.11643920838846    3.69135830896633   10.97317263630908
H         2.25926636809962    3.03973286235724   10.85698206482014
C         4.21293167015392    3.26599567193529   15.10309110924940
H         4.69997286876448    4.11642305298904   15.58591757891469
H         4.81642881535535    2.96265296881561   14.24893565248566
H         4.19189166352252    2.44522695250251   15.81925051579592

