42
CSD_code = SEBNAR | q = 0 | S = 0 | Stoichiometry = C19H19O3Re | MND = 8
Re        4.03297976986638    2.93457194256802    2.14262777460013
O         5.25339677969450    5.55307239787422    3.23226491104307
O         5.40467820453471    3.04742227942720   -0.62248973563319
O         1.36634469572341    4.19602750774848    1.22715636474901
C         3.72652516821163    0.60727313317280    2.25352073375336
C         5.08254074224951    0.85461389736766    2.66331825326141
C         5.04652863533377    1.62399309706411    3.86158295227780
C         3.66923860557376    1.84900409142420    4.20863846520163
C         2.85656132273645    1.19294950562867    3.23211756748502
C         3.29844498410139   -0.34478560229185    1.21350362989851
C         2.49708532186326    0.05621723127569    0.14864491425869
H         2.21692648063778    1.09925769372677    0.05695117184157
C         2.07943869440540   -0.85884602740433   -0.79820771335429
H         1.45969015011093   -0.52813838336723   -1.61940943095894
C         2.45060297128051   -2.19486161674743   -0.71228904892683
C         3.25373356914446   -2.59122458103295    0.35021489860333
H         3.55290108984723   -3.62663093894920    0.43455138560927
C         3.67224578431553   -1.68259580858060    1.30261611384111
H         4.28494020340055   -2.01278959235214    2.12992348763336
C         2.01961748892619   -3.18249236020320   -1.75297558027390
H         1.10652040424672   -2.85534700541727   -2.24468926078751
H         1.85287049601837   -4.16295032974498   -1.31171436375668
H         2.79524074116958   -3.28416846090661   -2.51313656750691
C         6.29938810280127    0.21239777650608    2.06936871885386
H         7.14028419951185    0.90415859192869    2.03283044407025
H         6.09482398916947   -0.13768220664536    1.05872255142412
H         6.59792368827696   -0.64489561999666    2.67718693566232
C         6.22122186166273    1.90223444107043    4.74846675400158
H         6.35126182408055    1.07651506254453    5.45231829571305
H         6.07939118660584    2.81623397319756    5.32311549796857
H         7.13736741137031    2.00026970903255    4.16856788911547
C         3.18347731595103    2.34785889775035    5.53637791759674
H         2.17112781883285    2.74068459471791    5.46039367171424
H         3.82775491303114    3.13501333704418    5.92489644554764
H         3.17713162467054    1.52747026843279    6.25827298129054
C         1.38900064659086    0.91946013337090    3.35772403033163
H         1.22697566024104    0.16672745739217    4.13263975409350
H         0.98750365538608    0.53722851858255    2.42103391228192
H         0.83197185468321    1.81331970332756    3.63608811627105
C         4.78487273145952    4.61187398612817    2.77365615095753
C         4.87927742195035    3.06799262895475    0.39650562774655
C         2.38799179033254    3.77546667638076    1.53921338250098

