175
CSD_code = SEBQEX | q = 0 | S = 0 | Stoichiometry = C72H100CrN2 | MND = 2
Cr        7.20337880314810    4.61873739300275   13.68419362677885
N         7.62078012080937    5.22400740528772   11.94176494447979
H         7.86403475789832    4.66116559781467   11.12462854072644
C         7.63997023297244    6.54416757460279   11.61356297654222
C         7.32508476870175    7.43418592293126   12.65467682261307
C         7.35506060038411    8.80176854746508   12.46427792270649
H         7.13724305740012    9.45936245707479   13.29481204588290
C         7.67622719595421    9.32171392913543   11.21953691244851
H         7.70375831337517   10.38965636276786   11.06375169171542
C         7.96157245091484    8.45735528630593   10.17743664851017
H         8.20070634884432    8.85456032057782    9.19968359614663
C         7.95033106040874    7.07921332047912   10.34703468456100
C         7.02332740705236    6.85563526506574   13.99094939840935
C         5.70307728588697    6.96526768194606   14.50942501317467
C         5.50695347977799    7.01505994792228   15.87355569897264
H         4.50650322627394    7.13587488388337   16.26110549931097
C         6.57294791097091    6.98297448756897   16.77935570170937
C         7.84467617089644    6.78589271694843   16.28143814997947
H         8.68046480051744    6.75437949898215   16.96015080643100
C         8.09931574543377    6.68444346671472   14.90654815679793
C         4.52867347820804    7.13758884673129   13.56867791099430
H         4.84688884145334    6.82232031769272   12.56830487137764
C         3.34035712856208    6.27618472105524   14.00561949014805
H         3.67793216965884    5.28719939684595   14.30523040845030
H         2.62910542313759    6.17601209128228   13.18876359550446
H         2.82001672489591    6.73297621177751   14.84393881307134
C         4.09278804461704    8.60410383673321   13.48853032566745
H         3.18818252326795    8.69066545066364   12.88990665998876
H         4.86665986081202    9.21129037548474   13.02871659576330
H         3.88888161330089    8.99522651621652   14.48302506583135
C         6.27890228571958    7.25484733885702   18.23736749834807
H         5.46469756252682    6.58721865602402   18.54654927011589
C         5.80342909959982    8.70596611747695   18.38614521551551
H         6.58627078703871    9.38861286210727   18.06143234508086
H         5.56627318443160    8.92378097579497   19.42566035414005
H         4.91763197954252    8.89474054442065   17.78534046316940
C         7.46353618588116    7.01369701780108   19.16643408572925
H         7.82844338572283    5.99673773316934   19.06178288135126
H         7.15481777929074    7.15549374694185   20.19984025515226
H         8.26967094209330    7.71407137658297   18.95752187418029
C         9.53986492203006    6.78248175877815   14.43735757809692
H         9.58049925799946    6.52125735684895   13.37437317144083
C        10.45288332047459    5.82351482303390   15.20272330472942
H        10.61047679420097    6.16007485309158   16.22426356670704
H        11.42587786618658    5.76920172524804   14.71980073493993
H        10.01288814801689    4.82899821873182   15.22767805059570
C        10.04764681579999    8.22066704057863   14.59034328022446
H         9.47093839916162    8.89651354793014   13.96490648681685
H        11.09218797584640    8.28289765131084   14.29189615736509
H         9.96197906798419    8.54693166574137   15.62451569605966
C         8.25052185543241    6.23269449712941    9.16596614410624
C         9.53224611849831    5.70674307033845    8.98299049605041
C         9.82473671608182    5.03579825297461    7.80454054051688
H        10.82316030761451    4.66316593065322    7.64389350149108
C         8.86716941557298    4.85049321106729    6.82013442699336
C         7.59111042956105    5.35113553801796    7.03456670987805
H         6.84335529719178    5.20019853056171    6.27071327251666
C         7.26749159308082    6.05208414805060    8.18581502031029
C        10.59911070883095    5.93653816172123   10.03159565181234
H        10.10679145735575    6.00364687180135   11.00768235583522
C        11.62813859561908    4.80879450194575   10.10337597368880
H        11.13290471820997    3.84187640230458   10.14050235112386
H        12.23549517481056    4.92065631946536   10.99923261782692
H        12.29654724112081    4.82842679521680    9.24559636174039
C        11.30178613738501    7.27105664622893    9.76323847272713
H        11.75182205009469    7.26761663793597    8.77226751269310
H        12.08458254486879    7.44010554785042   10.50006486387589
H        10.59237635455742    8.09272967192171    9.81908191707176
C         9.19806346719515    4.18402337137069    5.50579739592150
H         8.25555874926651    3.88547636957457    5.03184025878393
C        10.06566979534446    2.93548336120694    5.66373541193337
H        11.06810591712627    3.19320667902534    5.99598646152565
H        10.15186198580531    2.42001545975499    4.70915480266225
H         9.62779489174556    2.25210602164735    6.38699811609986
C         9.88962504584013    5.19949951461673    4.59058948413517
H         9.25358877217513    6.06902098153647    4.43953282974659
H        10.10678770784985    4.75445151502248    3.62170094171364
H        10.82414042546245    5.53355385101333    5.03631432100750
C         5.87418057256796    6.60076053248180    8.41139905205091
H         5.96745727456962    7.50572852532304    9.02001443243709
C         5.04177861369744    5.59244631953080    9.21011906938843
H         4.86221578480797    4.69548252235357    8.62011805407255
H         4.07889932483315    6.02466599509102    9.47563691168168
H         5.56038280196438    5.31113806980715   10.12405876178928
C         5.15126199102524    6.98229079610533    7.12047634328789
H         4.86384233500829    6.10228319389336    6.54944556958632
H         5.78345268417395    7.61236026526746    6.49872603656033
H         4.24438160203600    7.53445340008436    7.35892959313894
N         6.78594579593934    4.01346566621716   15.42661582402646
H         6.54272467504106    4.57631012833321   16.24376030407780
C         6.76675099894807    2.69330592237084   15.75481622806811
C         7.08163566790528    1.80328764654528   14.71370220314467
C         7.05165812114647    0.43570508789564   14.90410111385234
H         7.26946684229989   -0.22188908100575   14.07356479306810
C         6.73048974128120   -0.08424038403632   16.14884165924576
H         6.70294879259261   -1.15218287970583   16.30462451053641
C         6.44514411368682    0.78011836663462   17.19094190609440
H         6.20600486819111    0.38291327148460   18.16869363619163
C         6.45639108781831    2.15826023891073   17.02134482734630
C         7.38339775071879    2.38183785472993   13.37743038353401
C         8.70364833853736    2.27219817248259   12.85895840201601
C         8.89977663164469    2.22240817854000   11.49482813384129
H         9.90022932191778    2.10160276101183   11.10728149673542
C         7.83378624432643    2.25450580070861   10.58902427630285
C         6.56205668419135    2.45159229858616   11.08693904587394
H         5.72626907003291    2.48309828677049   10.40822465755104
C         6.30741339337455    2.55304037860015   12.46182960241780
C         9.87805152444051    2.09989237545885   13.79970978380584
H         9.55983473045196    2.41516859068721   14.80008009526018
C        11.06637465545048    2.96128819604147   13.36277012755585
H        10.72879836225808    3.95027034404492   13.06315267392051
H        11.77762684640432    3.06146746182788   14.17962536033324
H        11.58671466300503    2.50449241321113   12.52445294441161
C        10.31393715909537    0.63337787707177   13.87986417556223
H        11.21853416863789    0.54681970776773   14.47850052735988
H         9.54006051234530    0.02619485761214   14.33967354476639
H        10.51785656572164    0.24224627683187   12.88537518097309
C         8.12783899800837    1.98263013250723    9.13101448953725
H         8.94203978187225    2.65026485649215    8.82183342794061
C         8.60331864494082    0.53151263706832    8.98223766713299
H         7.82048193791703   -0.15114080572792    9.30694904773339
H         8.84047826836400    0.31369878995125    7.94272327106994
H         9.48911610351338    0.34274389963402    9.58304315612136
C         6.94319879625341    2.22376826466241    8.20195248285456
H         6.57828816028788    3.24072735282299    8.30659404085315
H         7.25192092372618    2.08196589876434    7.16854887853928
H         6.13706538716400    1.52339179519429    8.41086588921146
C         4.86686521342433    2.45499666006568   12.93102250746371
H         4.82622953124035    2.71621618143125   13.99400939984388
C         3.95385664378570    3.41396910788021   12.16565255368984
H         3.79626547951163    3.07741843605633   11.14410813251700
H         2.98086109715479    3.46827861555654   12.64857234136984
H         4.39385220807549    4.40848628519744   12.14070919367616
C         4.35907839653697    1.01681431281309   12.77801850911913
H         4.93579201755440    0.34096202814467   13.40344357391640
H         3.31454064617843    0.95458125757345   13.07647649305365
H         4.44473510930414    0.69055781072439   11.74384200963465
C         6.15620368875484    3.00477973984240   18.20241388034499
C         4.87447915093018    3.53072935689518   18.38539152708122
C         4.58198922501030    4.20167242693822   19.56384252352101
H         3.58356626362253    4.57430658820330   19.72449034961000
C         5.53955655336260    4.38697395456568   20.54824977413770
C         6.81561618333871    3.88633411690109   20.33381514700087
H         7.56337130117793    4.03726727315560   21.09766944095577
C         7.13923551914236    3.18539059516479   19.18256335992422
C         3.80761626097244    3.30093542345811   17.33678435457415
H         4.29993761535558    3.23382241390258   16.36069869390477
C         2.77859096276501    4.42868124847739   17.26499927653565
H         3.27382733547983    5.39559777947496   17.22786409741046
H         2.17123139676728    4.31681422446829   16.36914522925013
H         2.11018455924641    4.40905759476657   18.12278080607944
C         3.10493699255328    1.96641965592272   17.60514440675279
H         2.65489948259797    1.96986346904658   18.59611453384839
H         2.32214137659754    1.79737077364997   16.86831719801389
H         3.81434486663847    1.14474484152116   17.54930449438582
C         5.20865988830648    5.05344187513241   21.86258734122907
H         6.15116510010440    5.35196011706363   22.33656184451677
C         4.34108977085786    6.30200684232568   21.70464503193437
H         3.33865603008875    6.04431505320836   21.37236273534280
H         4.25488510349385    6.81746213346348   22.65923128402862
H         4.77900132010387    6.98538433192038   20.98140483910506
C         4.51705402745809    4.03797715755738   22.77777466619210
H         5.15306267057565    3.16843600434629   22.92883467082441
H         4.29989048866808    4.48302426311694   23.74666327266569
H         3.58253474799440    3.70395343683893   22.33203476236089
C         8.53254401747578    2.63670840248905   18.95697744832702
H         8.43926258211938    1.73173813681802   18.34836575510888
C         9.36494359538807    3.64501922003901   18.15825070892448
H         9.54451253633105    4.54198537359807   18.74824641173575
H        10.32781980627744    3.21279468399003   17.89273040384495
H         8.84633682203682    3.92632485925330   17.24431185463870
C         9.25546918141381    2.25518191662151   20.24789765053466
H         9.54289121354638    3.13519076624942   20.81892544112192
H         8.62328136700332    1.62511358400745   20.86965192723543
H        10.16234856074045    1.70301871186024   20.00944149160535

