91
CSD_code = SEBRUP | q = 0 | S = 0 | Stoichiometry = C32H46N8O4Pt | MND = 4
Pt        9.24219046240793    6.53545680716717   11.19193942106443
N         5.53395415506857    5.73832835506733    9.51139397004939
C         6.40058633179613    6.34693141984877   10.28421255853470
H         6.13010851763640    7.17593972648359   10.90870289136556
N         7.65071902946131    5.85285850909131   10.20238557208487
C         7.56655301726385    4.87479976345737    9.29882075453166
N         8.51347319859947    4.08601584130798    8.83416251902518
C         8.16971523829631    3.18495978855930    7.94037458126037
C         9.25524494623167    2.28097870209845    7.40093434398669
C         9.02505574100061    0.87184834121173    7.96721587652996
H         9.05608839876024    0.89194137414299    9.05515404413426
H         9.80106239022522    0.20064512379171    7.60696177633523
H         8.06016668783244    0.47626076766757    7.65799089193417
C        10.62918274104027    2.79276603108971    7.83393609909867
H        11.40988723213686    2.14810153414510    7.43816144146765
H        10.70751134892451    2.81435585745384    8.91466143761080
H        10.78766316820707    3.80298193527855    7.46878368229167
C         9.19964085296259    2.24313146764669    5.86853772136575
H        10.04302420104740    1.67130340091414    5.48967950506792
H         9.26011452087987    3.25015881398558    5.46333846338035
H         8.28821953957735    1.77587032137547    5.50549984307420
C         6.82968248881160    3.04675288100799    7.50936612159579
H         6.58509869365213    2.28346187290507    6.79360780582800
C         5.84210490246765    3.87615760768553    7.97578692603996
C         4.38957268373752    3.84417651879720    7.56721149204187
C         3.52866223242023    3.60428933190265    8.81544406208052
H         3.66787134860868    4.40395104228113    9.53666193147195
H         3.78646295624633    2.65480019245660    9.28004253525317
H         2.48038189774123    3.57543090380538    8.53090629246845
C         4.03552786577763    5.20179354785175    6.94347775702142
H         2.99745745825234    5.19409162546764    6.62248336870088
H         4.66281969252348    5.39884840209840    6.07645484069612
H         4.16810368519495    6.00194539739273    7.66555920433674
C         4.11571494752572    2.73586342679458    6.54859793119246
H         3.06190926171214    2.74999518720166    6.28319108174956
H         4.34394425838800    1.75521028729494    6.96062069863162
H         4.69135293001221    2.88640179360808    5.63836757617471
N         6.24478424163659    4.80307600327856    8.88119316452584
N        11.74796150770507    3.24338506604071   11.42645554244757
C        11.43360233432047    4.50780604198549   11.27625965122806
H        12.16346086083153    5.28237170616062   11.14071554971049
N        10.11043246534910    4.75015986857952   11.32791921272109
C         9.55500418179578    3.55651105021815   11.53143582000646
N         8.28210310454533    3.24858923881406   11.67196463095555
C         7.98137796606325    1.98095085393166   11.84840498891606
C         6.51895836104656    1.62382105051745   11.98953991297192
C         5.68083112298498    2.89377311622653   12.14158010687802
H         4.62934270821618    2.63728716801587   12.24276871488816
H         5.80247260072753    3.53918241641693   11.27871067277927
H         5.99379272869114    3.44951539010885   13.02044884699284
C         6.30655508561165    0.73505713514233   13.22132345807623
H         5.24273812399273    0.56661506766687   13.36820551235401
H         6.70162065709221    1.22036085641470   14.11041356447232
H         6.78720208772200   -0.23321104562478   13.11092241164701
C         6.08979012461811    0.87213842380298   10.72071415465510
H         5.03528637721128    0.61493524161252   10.78607278003843
H         6.65895818714557   -0.04612112603026   10.59525422285488
H         6.24438200956658    1.49572582190266    9.84193520477631
C         8.98405440452761    0.98381564147179   11.88415083499881
H         8.69684831225666   -0.04286677645424   12.01964605256100
C        10.31330571322352    1.30290217997422   11.76597357297208
C        11.46804437857129    0.33322119911621   11.82939464287317
C        12.25918752153678    0.41504243361771   10.51645476903078
H        12.65244625570015    1.41607992065782   10.36733969812740
H        11.62616471213111    0.14997145106409    9.67243721796684
H        13.09284860651834   -0.28082685578756   10.55387513788442
C        12.36957535537110    0.73783593242642   13.00477243729376
H        12.77212138590122    1.73505732475037   12.85372642672468
H        13.19812927117381    0.03936536326720   13.08348385645438
H        11.81215085839337    0.71741999401206   13.93913483668368
C        10.98559279223739   -1.10385333240665   12.03637011858395
H        10.35335884979805   -1.43079568946105   11.21366989922661
H        10.44016755699544   -1.20572738813229   12.97165512537752
H        11.84719360059248   -1.76485162750218   12.07875153944475
N        10.57828380942504    2.62134915221846   11.58557568781309
O        10.85199730548828    7.29008262106559   12.10654908491930
O         8.44640721221645    8.36392282152400   11.04584883926273
O        11.54325044097487    8.76529684544183   13.59242459442236
O         8.06978900520669   10.24660799309220   12.12903393269227
C        10.64678911880631    8.19615705105518   13.00526118893828
C         8.51791384945501    9.11928624165747   12.09088671375361
C         9.17105239625644    8.48537683164481   13.33503225280541
C         8.93034964136490    9.23394610860444   14.65036187040423
H         9.85541497487628    9.48417770791523   15.16535381062014
H         8.33134116915711   10.13229007347807   14.51667699567419
C         8.17537290996655    8.01757282893968   15.20637147139861
H         8.64527750076298    7.55564124774065   16.07295966046214
H         7.12656440510461    8.20406560302329   15.43102664299419
C         8.40636227993748    7.25454836186693   13.88970407212497
H         7.48579439287169    7.00636148648822   13.35156764089827
H         9.01896415393988    6.35309400811162   13.99906423124898

