23
CSD_code = SEBTUO | q = -1 | S = 0 | Stoichiometry = C11H5O6W(1-) | MND = 6
W         1.06303556016925    3.75977394071707    6.81507625597739
C        -0.04510015392843    2.41109927791914    5.84883909084588
O        -0.67253533067603    1.66131212157390    5.24713458759960
C         2.20719664164554    5.07529084957262    7.78877376049354
O         2.90093651277441    5.85834951389197    8.26415504135426
C         2.72233679331623    2.81395974186647    6.23941871951165
O         3.67349802484939    2.29579895014985    5.85889507541824
C        -0.62223537727315    4.66450429557171    7.39001153467767
O        -1.60801994710162    5.20335700037246    7.63043783491191
C         1.11872675333362    4.92505256204871    5.23003365436662
O         1.15067147493175    5.61218683538355    4.29684709625429
O         1.01647369394595    2.30386287281519    8.57981198148045
C         0.76257871947268    2.53112448218242    9.82066338992016
C         0.73014609584575    1.45048604354546   10.73801915098888
C         0.46238332908464    1.64372013602785   12.07301854437118
C         0.21403814150965    2.91361267969282   12.57395301868998
C         0.24191165570471    3.99038617953305   11.70102502726750
C         0.50822674724636    3.81178406326007   10.36160327909328
H         0.92281071609968    0.45751157058571   10.35318936063245
H         0.44485314038698    0.79061831377863   12.74287300073466
H         0.00296058834871    3.06075561943662   13.62524476687068
H         0.05108316079709    4.98953384782858   12.07739254119486
H         0.52722305951689    4.66871910224594    9.69458328734494

