43
CSD_code = SEBVON | q = 0 | S = 0 | Stoichiometry = C19H19O4Re | MND = 8
Re       -0.24271913460044    2.21864913558521    5.31978396242477
O         5.27316681530953    0.31474791704806    0.83089174147975
O         0.74938341182357    4.60911107279280    3.63406783769739
O         1.73596143487037    2.63116926822639    7.65499455042609
O        -2.60075770576933    3.70322135913456    6.64925820606602
C         0.53481794901952    0.54164791975925    3.86112736280033
C         0.39022387366278   -0.05669355431678    5.15456002543390
C        -0.99536249152698   -0.00869835230383    5.51165799688912
C        -1.71513452224938    0.57065197867107    4.41133957935894
C        -0.77529175466348    0.91685526551285    3.39817826931119
C         1.76024238609914    0.49282037559868    3.04529086217138
C         2.92060395872076    1.16035830558814    3.43737152315048
H         2.90902374179519    1.76508587034784    4.33620089356879
C         4.06756221575117    1.07863039486505    2.68131950560352
H         4.96635755447021    1.59599973382378    2.97680204734545
C         4.08934039185048    0.32771384138822    1.50420481602290
C         2.93588903760231   -0.33705486594133    1.10495861278507
H         2.91554292045566   -0.92619833124411    0.20137583568826
C         1.78785784991243   -0.25230349528276    1.87342926813783
H         0.90286755794209   -0.78645565328129    1.55744042039502
C         5.35646439959766   -0.41003561049641   -0.37087737875802
H         5.17208441773408   -1.47776896510848   -0.21149695792218
H         6.37557103091613   -0.27181793458930   -0.72843208553899
H         4.65618384119839   -0.02822330517262   -1.12121367838010
C         1.44696049378450   -0.84190163453406    5.86937223225879
H         1.27366984922759   -1.90894967439093    5.71089496056382
H         1.43353895314843   -0.65558862101079    6.94276402874161
H         2.43533498864140   -0.59547397973452    5.48566901337257
C        -1.61549637462962   -0.77008885519628    6.64479784222804
H        -1.82975119343146   -1.79378040968198    6.32794464454043
H        -2.54995852816160   -0.31251056030181    6.96545609399955
H        -0.94443501824889   -0.81366116521063    7.50082261136369
C        -3.20436692149482    0.56870131697278    4.25111991267277
H        -3.52587044395928    1.34004186445558    3.55349367984198
H        -3.70849394990035    0.73417609063741    5.20210858588246
H        -3.52787277509845   -0.39936599555561    3.86087746056264
C        -1.11116643647271    1.35039578671893    2.00292779690642
H        -0.22772098229268    1.74022339393291    1.49960205220165
H        -1.88049753184299    2.12202041730795    1.99832685188090
H        -1.48774086850267    0.49944707227433    1.43044369968926
C         0.37712533018775    3.76113750178774    4.30961752500077
C         0.98425372443800    2.53952147361174    6.79242892176847
C        -1.68629149531370    3.20224360731001    6.17089887036716

