38
CSD_code = SEBVEA | q = 1 | S = 0 | Stoichiometry = C10H17N6O4Pt(1+) | MND = 4
Pt        5.40504060213882    3.98934979317210    5.10150212666018
N         7.13997014960249    2.75977145042199    5.04562361877845
N         4.63303172052710    2.92696926000953    6.71135433896908
N         2.47287116888248    6.67296056017110    6.41248835629849
C         2.28206733291490    7.48557532633167    7.59551858080083
C         3.57252991056980    5.83715070179081    6.34486291378559
O         4.34426395711144    5.69468477315631    7.28642390089613
N         3.74911716149789    5.13666194880047    5.19851161818265
C         2.83920156856524    5.06258354741896    4.19182800053290
O         3.05970743243893    4.27664158906236    3.25574837576787
C         1.68183458563390    5.90749129573550    4.31378269103126
C         1.56165531115217    6.68893594038979    5.40729677549951
N         8.00263755734559    6.82005460578262    3.56861238033276
C         9.05955507027796    7.54999030089493    4.23905273957641
C         7.31404084220327    5.85298875615833    4.28322999117121
O         7.64386190788254    5.54992600718359    5.41530277247374
N         6.26536191049454    5.21337162586052    3.66330627433799
C         5.97200892591557    5.42558940235686    2.37876356910420
O         5.02472035463817    4.79662394825127    1.77728160185740
C         6.74659161778533    6.36066811093672    1.63105101005807
C         7.72356758561843    7.04746218122752    2.27036787466095
H         7.50227476802684    2.64074163278091    4.10054856493675
H         7.07116522977663    1.83520901312414    5.46716501236461
H         7.81341894882575    3.31617780070049    5.57753252950455
H         4.59384777915541    3.69785687245885    7.39462060768048
H         5.18931384149581    2.17056412059906    7.10610706184666
H         3.68535594739238    2.58466392677212    6.55225056357945
H         2.20990198661752    8.53784192534206    7.32164309298526
H         1.37501941599790    7.18638044832262    8.12143376272530
H         3.14227869823064    7.33546593413753    8.24554639154924
H         0.94722075499699    5.89692074497240    3.52893025378454
H         0.72448132360572    7.35723996625410    5.54651157839979
H         8.95462456767891    8.61650592910180    4.04716207553843
H         8.98063842612432    7.35736773533104    5.30772586466309
H        10.03595066736305    7.21380368005266    3.88760361183348
H         4.30360518685284    4.38867513800219    2.38997314508909
H         6.50981958116384    6.51426498005263    0.59406212828900
H         8.31934620349273    7.79876902687973    1.77347424445232

