103
CSD_code = SEBWON | q = 0 | S = 0 | Stoichiometry = C48H52N2Ni | MND = 2
Ni        3.42143189587657    6.52185046408483    4.42419977779736
N         4.05196673457882    4.80787312748605    4.82724368690315
H         5.04486218064051    4.59589591642528    4.94548706984675
N         2.79522892776458    7.77114185439663    3.18089190693701
H         1.80306024299627    7.98287678975067    3.05672689385695
C         3.28019374562253    3.85166029126527    5.38019105844812
C         1.89583100875782    4.10579204070244    5.51865378125468
C         1.04442906030913    3.12625119991958    5.98943941289292
H        -0.00917155416302    3.34375394859655    6.09722372203827
C         1.54035653750604    1.87954484269119    6.34136826700581
H         0.87265288373584    1.11408319993254    6.70694950004505
C         2.89787914656847    1.62071028540804    6.22633547321910
H         3.28256315137737    0.64474454706375    6.48893084517842
C         3.77799502564248    2.58202784786656    5.76412044882175
C         1.41075604940235    5.47520880941861    5.20964908390061
C         1.71041959837775    6.53600462560048    6.10749940386476
C         1.04608173028682    7.75830760809602    5.95132831867380
H         1.23321932456984    8.54905371914853    6.66579999367009
C         0.10680428382164    7.95869448461857    4.95203544101623
C        -0.15012397867017    6.92072729881273    4.06031458120985
H        -0.87053664845023    7.07512523134477    3.26845791369229
C         0.48746149921078    5.69458198269799    4.16621007105462
C         2.45150304996267    6.26567351123420    7.39490505485959
H         3.39247100503858    5.74618134438226    7.22881981536151
H         1.82999412126125    5.63165979305644    8.02977561528190
H         2.64917069324434    7.19521096956070    7.92359092861480
C        -0.64350762685675    9.25037667178406    4.84745269463638
H        -0.78235038026980    9.53238875102213    3.80596263423263
H        -0.11722520052435   10.05005990262721    5.36294796929693
H        -1.62940296151811    9.14329197821925    5.30122469757322
C         0.16048949457344    4.59489959041985    3.19998225719148
H        -0.66749565268869    3.99365224571007    3.57607040881287
H         1.01669327541506    3.93970955156030    3.06165610899431
H        -0.13206357921990    5.01053509252995    2.23842478351371
C         5.21976930861139    2.28603544027348    5.60393617602827
C         5.76897425908265    2.16471614647014    4.32258398291316
C         7.12687405476485    1.91898546614047    4.18730368932301
H         7.55081590659217    1.83111420748425    3.19602878941829
C         7.95230126211498    1.77675233275682    5.29301955081596
C         7.38950409636981    1.88515577958256    6.55648902980641
H         8.01966789898337    1.77376762609328    7.42890546653539
C         6.03678502051531    2.14293569156508    6.72706964791579
C         4.90104177285942    2.28997911580519    3.10674458908914
H         4.62364731975578    3.33199669757968    2.93784223853900
H         3.97982178895785    1.72402303483086    3.23737776265160
H         5.42034877567965    1.92348293319824    2.22420920464752
C         9.41516672001351    1.49208308551061    5.12618115684837
H         9.79525887061461    1.93749822437826    4.20913060805953
H         9.58186141198218    0.41562265713366    5.07063679243101
H         9.98543714234089    1.87716165356464    5.96896110537065
C         5.46851982360579    2.28277492451040    8.10868391978567
H         4.98525707220625    1.35538252236028    8.41541093441704
H         4.71823820711635    3.07061674852428    8.13992812662673
H         6.25464712762292    2.50792455566141    8.82621774900198
C         3.57041636078665    8.74429555159332    2.66325704226787
C         4.95284084476790    8.72979529568747    2.96165934390874
C         5.80785504622528    9.64408275696619    2.37924025647820
H         6.85985159716325    9.62205456596207    2.62781736824309
C         5.31767467856095   10.59663818790183    1.49816997295330
H         5.98830344510496   11.30877459088817    1.04159253013845
C         3.96197496012311   10.63405354426657    1.20878063939037
H         3.58159447085275   11.36863208729105    0.51222408051148
C         3.07840755320374    9.73678979526291    1.78012955641869
C         5.43187040673589    7.74823851892446    3.96797840396563
C         5.11745059330218    7.95134175150477    5.33977717146021
C         5.77325585733341    7.17554063506048    6.30271393903723
H         5.57515604389406    7.36521460983114    7.34939946000469
C         6.71899197688162    6.22311683582978    5.95613774004762
C         6.99180237001912    6.01445373524452    4.60716103412859
H         7.71623824948710    5.26136676124039    4.32790888322624
C         6.36213245939775    6.74903678827447    3.61425456130663
C         4.36899995193491    9.18600064845677    5.78153629713179
H         4.16399032417411    9.14611686071457    6.84869200395029
H         3.43125005555311    9.31486092909882    5.24614647237740
H         4.98874797939150   10.06158405423600    5.58068498988345
C         7.45809931447982    5.45532246648251    7.00812485709329
H         7.64812006892357    4.43578008320625    6.67990157461328
H         6.89529811707957    5.42814203571339    7.93816799175399
H         8.41937311424292    5.93106213440477    7.20634111659754
C         6.70521547852165    6.50694849466995    2.17424840492865
H         7.54763928144324    7.13114319202223    1.87535302136632
H         5.86156513891501    6.74955709926665    1.53321081491940
H         6.98398846886091    5.46668579911715    2.02177105407233
C         1.63893212716140    9.75496069627804    1.43429513966878
C         1.09608781147821    8.72888300807639    0.65282889380732
C        -0.25967175747470    8.74267772712089    0.36252080834786
H        -0.67891585678629    7.94595639996645   -0.23711181468672
C        -1.08902993483489    9.75726715227542    0.81771215544188
C        -0.53261779917395   10.77430385965065    1.57989422279379
H        -1.16593204308766   11.57412539282579    1.94026298327477
C         0.81794213129113   10.78440740686085    1.89860167344568
C         1.96860813250993    7.62910474494473    0.12701712738298
H         1.45555309823180    7.07048270997500   -0.65251071962427
H         2.24012361928011    6.93811446086091    0.92714674266398
H         2.89286884346609    8.03805782603409   -0.27867859808715
C        -2.54918816738356    9.76432311390081    0.47607216318246
H        -2.70655974291151   10.26816462091052   -0.47841190158690
H        -3.12399959747268   10.29256707705679    1.23385324711643
H        -2.93158493412894    8.74965646564477    0.38575818709003
C         1.38003635212768   11.88491773700963    2.74962526443296
H         1.87351307274067   12.63109943879477    2.12723134550147
H         2.12066769600301   11.49509460744295    3.44546854875229
H         0.58908781795872   12.38004738428167    3.30881380891606

