175
CSD_code = SEBXIJ | q = 0 | S = 0 | Stoichiometry = C64H88Cl6N12NiO4 | MND = 6
Ni       -2.19664499851525    6.48370531256981    7.58472261054328
Cl       -4.06806330741089   11.41255207108526    1.37409698304396
Cl       -0.75261183297490    7.86605635909092    8.45182982578388
Cl        0.39610414356248   -0.63584413928203    3.16690756236039
O         2.49087784223634    4.70412668297022    9.77797872730233
H         3.28597020783265    4.70350220229980    9.23563583363781
N        -0.78253186876178    4.42752277858230    4.23011359961536
O        -3.34069646381789    3.04102707969457    4.33096787560111
H        -3.43977463868132    3.78099950322555    4.96095216793815
N        -0.24703101311467    3.92865270478265   10.07438499782639
N        -0.56269060004171    5.55335023518800    6.07937194330107
N        -1.57311210245428    5.10464472827820    8.82652108848161
C         0.83876246324325    3.50342915789266   10.90597735010688
H         0.55108766709212    2.54652888263593   11.33612926232835
H         0.96898463490348    4.24939404032750   11.69044519448723
C         2.16873330473378    3.37236044387500   10.12757493790565
N        -1.23518159433651    3.10428444111586    9.72016359686597
C         3.28033820313284    2.78480368156115   11.06882449328575
C        -2.75705884899551    3.44534348375514    3.11409508692819
N        -0.28393116433480    5.61655697752793    3.87134807091955
C        -0.45510929655807    5.12815408385835    9.53976394774032
H         0.20987856164090    5.95887414915250    9.66608235279579
C         0.74988467820931    0.48836676724381    4.43830232957834
C         1.64988893438736    3.24717203497739    7.58520473810561
H         0.81342465793083    3.93127239358186    7.72719378474640
H         2.51280124347005    3.85073805002315    7.29742450177000
C        -0.15908782596384    6.26434446207119    5.00567738448843
H         0.23426003483392    7.25893983318891    5.07348939878021
C        -2.31014945714485    7.94310038556610    2.24646623331854
H        -1.46964025062996    7.59719364964690    2.82995943254634
C        -3.24408919129473    4.88171708155452    2.81002123951574
H        -4.33361803297538    4.87307888227132    2.77479150898650
H        -2.97034863466278    5.49563800331005    3.67373005286392
C        -3.05987882330162    7.01999775019281    1.52483979043415
C        -2.69418404298390    5.56403345408487    1.55217014814502
H        -3.09653029676915    5.08467411421105    0.66032443594993
H        -1.60695110464977    5.48756850265931    1.54242575744362
C        -2.02033827170456    3.83465405208370    8.97478175193447
H        -2.91838539898454    3.45754837655416    8.52789926091306
C         3.33597271465013    3.58480225228370   12.37698540143969
H         2.50940563538337    3.32609743163483   13.03198249321848
H         3.30598613414465    4.65212365014125   12.17076039521392
H         4.26227978080984    3.36284825889075   12.90151160165158
C        -1.20242993181744    3.44685126897178    3.27719987236460
H        -0.89310817475765    2.46450917553649    3.63623879430683
H        -0.70540492082666    3.67415628861137    2.33693914008763
C         0.18973442229284    1.49127865644125    6.53338712149484
H        -0.47938235590615    1.57193202299937    7.37813989673175
C        -2.61239871037470    9.29177119730048    2.20771270024558
H        -2.02755266107416   10.00425558573176    2.76830993752656
C        -3.17418634065421    2.34870303061628    2.06832572241510
C         1.32971681954151    2.28785870589887    6.47466765659142
C        -0.93985341594839    4.39891578553879    5.55505882108577
H        -1.32309833668695    3.55218728842811    6.08412934833725
C        -4.44496298280323    8.82240548439426    0.71387597708165
H        -5.26836884170713    9.17108322104711    0.11005848614810
C        -0.10684250484210    0.59466484346608    5.52369696275951
H        -0.99657745051376   -0.01284846771733    5.57432198661314
C        -3.67855185571834    9.72226527457307    1.43411356100072
C         1.88586879444027    1.27517820952408    4.35457581021475
H         2.54301843530186    1.18847104402189    3.50368830422983
C         3.03051835090509    1.31211169497896   11.40457082818330
H         3.79429979823329    0.97269416152280   12.10060701117416
H         3.07784928701526    0.68035654641359   10.52254683912349
H         2.06512373670827    1.16845416017376   11.88053968398356
C         4.65491979022680    2.91745586283869   10.39292417110432
H         4.96126238176326    3.96017464477975   10.33864774484413
H         4.66690864531333    2.49374015212951    9.39143602510629
H         5.39831328638542    2.38740346568175   10.98316191702417
C        -3.09809391438680    0.96587203296705    2.73180127917819
H        -3.41504396107085    0.20580041795899    2.02158978242356
H        -3.74468805585829    0.92897608010289    3.60168009668310
H        -2.08475204774897    0.73397669599154    3.04375120301327
C         1.95264113711496    2.47749936103509    8.87898666197537
H         2.83769257391855    1.86951608424105    8.69033150626308
H         1.13017845740126    1.79326101074801    9.08808070843708
C        -4.13198276615815    7.47544034794165    0.76878204605204
H        -4.72508063895642    6.77353195931606    0.20094204034064
C        -4.63037827245257    2.57414145992953    1.64550132997966
H        -4.73378396422285    3.44930265361902    1.00994034150457
H        -5.25615080536621    2.69281578960724    2.52580567676289
H        -4.98688924909480    1.71100741813758    1.08803564547085
C        -2.28480238119646    2.29908813212038    0.82098534369387
H        -2.74288056682198    1.62908839254362    0.09606756617834
H        -1.30113975796353    1.90151829112030    1.05647127671775
H        -2.16496770688088    3.26783496503960    0.34902903834199
C         2.16690221688129    2.16809988235243    5.37379828223189
H         3.05373195480704    2.78131736522039    5.30487156916176
Cl       -0.32506169070069    1.55522705717855   13.79578901736543
Cl       -3.64229549943299    5.10169179723340    6.71928203853969
Cl       -4.78915135708648   13.60387575882572   12.00313121583279
O        -6.88390081565115    8.26375317570064    5.39213641226205
H        -7.67901757234829    8.26442525964923    5.93444752074504
N        -3.61030621285754    8.54027529753716   10.93981764063282
O        -1.05233200492763    9.92669935986664   10.83904544248618
H        -0.95316644296195    9.18671241954804   10.20913402951459
N        -4.14599363875391    9.03929439912494    5.09557043234366
N        -3.83022009183293    7.41448682037487    9.09048750673976
N        -2.81998860393208    7.86348628438753    6.34363166032248
C        -5.23178398024915    9.46450370748226    4.26398229268152
H        -4.94408998890597   10.42143961500049    3.83393263328703
H        -5.36201824294999    8.71860661222693    3.47944798414746
C        -6.56174527513878    9.59547806833086    5.04242226167100
N        -3.15784385990690    9.86371748009871    5.44976007476472
C        -7.67339690141128   10.18302339367518    4.10120757242049
C        -1.63601039180533    9.52244476086927   12.05594894520855
N        -4.10955069537902    7.35149981297975   11.29850330652273
C        -3.93793454406681    7.83989787474860    5.63032115329325
H        -4.60278909486748    7.00906213762549    5.50405841622481
C        -5.14288512399149   12.47962441212632   10.73176092612671
C        -6.04284452714766    9.72077749868848    7.58483330053904
H        -5.20635626475334    9.03670276681861    7.44283396360208
H        -6.90574573943538    9.11719966644915    7.87263403265379
C        -4.23301615418596    6.70319026836382   10.16430319343599
H        -4.62730174494978    5.70895446971966   10.09642406714867
C        -2.08297273225496    5.02469204789916   12.92347071993191
H        -2.92346787243362    5.37061834602661   12.33996942912971
C        -1.14903603031286    8.08606809459061   12.36003718395255
H        -0.05951214501398    8.09473013349734   12.39532154402680
H        -1.42272689302895    7.47214006424292   11.49631171356427
C        -1.33326702468762    5.94777728550786   13.64514129232312
C        -1.69899146193257    7.40373469711945   13.61785200712268
H        -1.29668896966121    7.88307684756566   14.50972676594829
H        -2.78622563390400    7.48017790490136   13.62754543467117
C        -2.37269018178939    9.13343571007486    6.19523252437615
H        -1.47455698478354    9.51049203492338    6.64198593041329
C        -7.72906723133697    9.38305300113393    2.79302992536027
H        -6.90251739304831    9.64173746975707    2.13800395624136
H        -7.69914141043694    8.31572135476489    2.99920566849871
H        -8.65538236948501    9.60508583374131    2.26854747649802
C        -3.19063285361402    9.52099056460159   11.89279586563231
H        -3.49980914324162   10.50331530046321   11.53359750179265
H        -3.68783488114509    9.29382565154654   12.83301778561774
C        -4.58269805827843   11.47669506384977    8.63668189473299
H        -3.91355316916477   11.39604442470730    7.79195022261575
C        -1.78070885398838    3.67602402676243   12.96218051613953
H        -2.36553242346862    2.96355262525245   12.40154378512797
C        -1.21896247172279   10.61909114080041   13.10175176255442
C        -5.72267848888328   10.68010545858830    8.69537503916116
C        -3.45242368858784    8.56870110199723    9.61490049392772
H        -3.06928868757519    9.41546279368823    9.08579687067843
C         0.05183291734690    4.14536666582875   14.45605221380572
H         0.87523942310313    3.79668004375994   15.05986071094090
C        -4.28613530937488   12.37330658204588    9.64638194033802
H        -3.39638975913956   12.98080690717299    9.59577962269948
C        -0.71456808959396    3.24552086422762   13.73578930365325
C        -6.27884793005748   11.69277543695236   10.81548244749232
H        -6.93601617224929   11.77947998537273   11.66635622399377
C        -7.42354044943009   11.65571174715874    3.76547701052992
H        -8.18729765929708   11.99512825335005    3.06941645945576
H        -7.47089746945711   12.28747498629886    4.64749492476759
H        -6.45813148294925   11.79935943747991    3.28953092061979
C        -9.04797322388854   10.05037288356277    4.77711909539266
H        -9.35430222066212    9.00764913389855    4.83139931630186
H        -9.05997158817899   10.47410226512228    5.77860206508457
H        -9.79136704147728   10.58040622333728    4.18686221671347
C        -1.29499125574038   12.00195850888769   12.43834280878326
H        -0.97804026402958   12.76199772332526   13.14858597985958
H        -0.64835906703577   12.03887011070174   11.56849491680587
H        -2.30831869147267   12.23388487790371   12.12636385497873
C        -6.34562068318146   10.49036537408204    6.29100496146512
H        -7.23065107542368   11.09837936146376    6.47965326638097
H        -5.52313869063016   11.17455940836048    6.08185318069534
C        -0.26115680093926    5.49233081345199   14.40118242838902
H         0.33193452546131    6.19422511319761   14.96904592021202
C         0.23721432809009   10.39360297671425   13.52461978030579
H         0.34061076979394    9.51841900160391   14.16015267275034
H         0.86303361190014   10.27498244765506   12.64434255434317
H         0.59370410117230   11.25670705090466   14.08214099467889
C        -2.10834944934431   10.66869243417644   14.34909756725150
H        -1.65025075613526   11.33861469377011   15.07407309916194
H        -3.09198699181126   11.06633002048778   14.11362280181186
H        -2.22824592125915    9.69992430279900   14.82099380627590
C        -6.55985157537579   10.79983773715304    9.79626148240792
H        -7.44668584463291   10.18662558435788    9.86518823856039

