75
CSD_code = SEBXOO | q = 1 | S = 0 | Stoichiometry = C29H35BN8PRu(1+) | MND = 6
C         9.13702918301271   12.72569457062873    4.17976969198336
H         9.29274826423424   12.81627185686161    3.11980187265513
C         9.32865990590855   13.68178553855674    5.17639801016356
H         9.65507413776544   14.69313524229195    5.05517678391563
C         9.00617409072360   13.03220932556100    6.34891378344131
H         9.01097550485026   13.38335827233830    7.36000475233826
C        10.18122060850686    7.94485121768899    5.57276746283162
H        10.47217092001566    7.38196755552379    4.70460551171257
C        10.61620753965056    7.80581971992465    6.89007700332712
H        11.31685893358334    7.09447522140788    7.27367553791253
C         9.94349619874435    8.78868479776210    7.58415293330604
H         9.97266751455078    9.04779796129591    8.62225294121539
C         5.38394927857891    9.43779187080660    5.08776958631431
H         4.99107806334468    9.07526513278870    4.15437927848637
C         4.70468399131110    9.63355393230121    6.28922928319947
H         3.66943959371675    9.45456879894530    6.49052638976542
C         5.66715662059477   10.10816983292187    7.15569810807011
H         5.59306791536218   10.39218974909835    8.18476165250265
C        11.74204339194102   10.35572683029517    3.24321158393591
C        11.88217784563819   10.77177075518648    4.56001996522315
H        11.02961975846021   10.76615809752562    5.22120551406532
C        13.11437300287811   11.19218510590005    5.03373829014270
H        13.21097157992906   11.51375297828081    6.05966666437095
C        14.21547531639642   11.19900128024834    4.19618230881885
H        15.17492677151634   11.52715087312593    4.56518735500173
C        14.08569863577995   10.78057297345980    2.87954287552864
H        14.94331805141254   10.78191808505588    2.22401261668701
C        12.85957414664360   10.36054160526860    2.40416140834516
H        12.75933497374762   10.03124649094676    1.37832351987402
C        10.00621417986819   10.87136375148682    1.09723233364566
C        10.72879858193815   12.06071815530660    1.01148349292561
H        11.43927400689844   12.32071141775862    1.78180304887550
C        10.55311370978682   12.92072313589315   -0.05843571505337
H        11.13124423968103   13.83079737193756   -0.10792178040252
C         9.64504665026155   12.62076540326526   -1.05966849997181
H         9.51607082653640   13.28846116976125   -1.89689465520303
C         8.89556879137938   11.46027110361680   -0.97162740324283
H         8.17458371781624   11.22073632299622   -1.73908149652548
C         9.06344687745841   10.60473181092992    0.10337556727073
H         8.45508387978174    9.71239781730882    0.15336539951758
C        10.66167346390753    8.14811719900943    1.91930825624481
C         9.89598097010349    7.46105736088130    0.97735947332648
H         9.02233751887761    7.92022953696692    0.53935589067686
C        10.24941083052646    6.18923733731439    0.55979805733746
H         9.65168024797530    5.68683915143068   -0.18609833863540
C        11.36115308740466    5.56362477737230    1.09664533352046
H        11.63706778978746    4.57278595243983    0.77175779801515
C        12.11185810836383    6.21993659984433    2.05741643881699
H        12.97532819385978    5.73887711431214    2.49107753271136
C        11.76477465388972    7.49442904703809    2.46899500717415
H        12.36586322276362    7.98469506290946    3.22029929880370
C         6.09463980585460   11.89623254414454    2.87793718658725
H         5.37993363163061   11.56325346684079    3.62869522073966
H         5.54061544362911   12.31692285768264    2.03361028150201
H         6.71281529063267   12.68116231674227    3.30969344324794
C         7.26176010701359    6.72408871694223    4.29084848881703
H         8.09489376263326    6.56484078227817    4.97289025333285
H         7.00826240582847    5.76773258834625    3.82388374088280
H         6.40287766705217    7.06712719768662    4.86557674506807
N         8.72610101510044   11.58939928560394    4.72861088669739
N         8.64811916528451   11.77512368274559    6.04700050727149
N         9.30903138027499    8.94196138987987    5.49557568758871
N         9.16532161225824    9.45577905173409    6.71881523423503
N         6.66082372737916    9.77396715736904    5.23443601474732
N         6.82840669810116   10.18051939467889    6.49095498529639
N         6.94520071695882   10.77387266803770    2.45266723575219
H         7.56636923638486   11.12534669111277    1.71875837608642
H         6.33705577357332   10.08583741534850    2.00329085950852
N         7.63209780021558    7.73034398251754    3.28395427911538
H         6.85033845134198    7.80722360159400    2.62940734476426
H         8.41593051450552    7.34944284670535    2.74606963145258
Ru        8.25699069273049    9.76868013153659    3.96331247161654
P        10.13724623433280    9.78778135454262    2.58275182308321
B         8.21121268607733   10.63319503790000    6.97836304465546
H         8.20421089367371   10.95924356621760    8.10943853298757

