87
CSD_code = SEBZUX | q = 0 | S = 0 | Stoichiometry = C35H46FeO3P2 | MND = 5
Fe        8.60278570023215   11.56574816721940   -0.07834075219392
P        10.28950450315848   12.47781856870255    0.88646396329290
C        10.02466534186462   13.13616584709503    2.59850392308317
H        10.99724763234969   13.37511433589018    3.04330947396037
H         9.46819808695475   14.07364931595207    2.46875958513496
C        11.76003963201702   11.39072229983154    1.14970949180586
H        12.59618234082831   11.97644555851751    1.54282669744027
H        11.47329333440578   10.65249957936188    1.90747151243411
P         6.97298169251617   10.41516897792312   -0.87070132136836
C        12.14830653234716   10.68470866980195   -0.14378749589559
H        12.40693158382461   11.42980844285685   -0.90255947396821
H        11.27954710839760   10.13086624342942   -0.51142396397679
C         9.22567875020796   12.18825609787885    3.48460613408139
H         8.32978421629072   11.87445547729346    2.94043659673902
H         9.81056650418098   11.29113917364288    3.70155017082833
C         8.79102076183241   12.84379991412659    4.79217316985580
H         8.28862068036269   13.78861071449602    4.57047942578850
H         9.66810195497851   13.06690783241179    5.40506541103446
C        13.30534873211589    9.70802644613102    0.04497995174361
H        14.23293706861656   10.26038426642281    0.21446619719785
H        13.11682112198014    9.09206035566620    0.92817986211925
C         7.83370556228565   11.93984073695708    5.57617262461862
H         8.30604620126070   10.97184720750731    5.75591424056622
H         7.63407766861158   12.40362918886827    6.54757068912185
C        13.46464728210273    8.79318924154508   -1.17457029752886
H        13.54033030173010    9.39887293160324   -2.07963365346823
H        14.39413348283416    8.22496510591168   -1.06747765151726
C         6.53226527239184   11.74651418361492    4.86140510722381
H         6.01326484121512   12.65880582445928    4.59384441476507
C        12.32590852027024    7.82892598747242   -1.29628308366794
H        12.16667648534446    7.19637410132474   -0.43116304704554
C         5.99745890229349   10.57348731505172    4.56633605067517
H         6.52221139332802    9.66255266889496    4.82852902414777
C        11.54377850421275    7.70098316987852   -2.35504034449642
H        11.69616495554838    8.33685461006917   -3.21853832269491
C         4.67843491582133   10.37132805659387    3.88764781572841
H         4.22707248568285   11.33692183645442    3.65183665032144
H         4.00957849865467    9.84214084429672    4.57381275302041
C        10.43155316524224    6.70685652137090   -2.48402293548906
H        10.32319354279541    6.14788370923097   -1.55223879431323
H        10.68701254947378    5.99605186379313   -3.27649027353136
C         4.82121049561961    9.54342627814823    2.60547468476729
H         5.37701333090770    8.63005226568368    2.83316307087542
H         3.83214230467109    9.25149583422740    2.24382055664498
C         9.10080348520256    7.37762059204892   -2.84119736244242
H         8.35107828766725    6.61181524174579   -3.05594890044562
H         9.23459217912636    7.97758719881415   -3.74470617925156
C         5.55874960383785   10.32450343432133    1.52183368875110
H         4.92653053094435   11.13642081561074    1.14914205460077
H         6.44989738995411   10.77973939831487    1.96375244059197
C         8.61306199455545    8.27735646758869   -1.70940084046008
H         8.38715567221187    7.66930040596383   -0.83006957368813
H         9.42244590337091    8.96182243017746   -1.43817823059982
C         5.99256250390203    9.44295208389728    0.35693882216432
H         5.12752906943288    8.98374857715965   -0.13054448686265
H         6.64730956136445    8.64147254622985    0.71790590858234
C         7.39410648508641    9.10065150492684   -2.10732325467172
H         6.51600520015065    8.46422470934284   -2.26462117835184
H         7.60179085488280    9.63476984105811   -3.04376495187834
C        11.04168463389021   13.98315286946132    0.15694732300635
C        12.23230633481915   14.52848028280864    0.63155865998369
H        12.77131982445921   14.05588679288551    1.44019270807537
C        12.74025177410235   15.68771141323418    0.07502218076652
H        13.66799956521954   16.09825429819099    0.44718198172914
C        12.06451268614359   16.32418643460599   -0.95331386837292
H        12.46657589498314   17.22829171624476   -1.38624278409457
C        10.87100329897056   15.79982837443977   -1.41870569759664
H        10.33458560334866   16.29572130656997   -2.21447651602325
C        10.36386648358130   14.63814244426458   -0.86487047336538
H         9.42958148035742   14.22336581305200   -1.22086482253776
C         5.66155251117479   11.25555143992423   -1.83904180140355
C         4.49690476798366   10.60539525669745   -2.24047146309877
H         4.31784967215565    9.57575907244031   -1.96570824761418
C         3.55287579395173   11.26997626733368   -3.00114339424164
H         2.65023926392273   10.75744335878104   -3.30165510207183
C         3.76073277867244   12.58612659438718   -3.38030060112037
H         3.01905170419088   13.10169056536573   -3.97240134873095
C         4.92393214449973   13.23417495401142   -3.00222670094150
H         5.09636476356865   14.25766573633884   -3.30163985708300
C         5.86749997849773   12.57105565869653   -2.23841385523641
H         6.78124681202767   13.06956209893204   -1.94139929388676
O         9.15546165454910    9.24255227430663    1.60544192142872
C         8.93648498934590   10.16373326759456    0.93767583629302
O         9.77560201871402   11.76592788072339   -2.76052330663647
C         9.31841538621886   11.70885149618850   -1.70090746290735
O         6.87160384975182   13.72431835814609    0.89801215594018
C         7.54243166745192   12.87515295955994    0.49301803584348

