36
CSD_code = SECGOX | q = -1 | S = 0 | Stoichiometry = C10H12N2O11Y(1-) | MND = 9
Y         3.17151050663469    3.58979664225155    9.12556354879790
O         2.56963709904009    1.87231309980651    7.55500802546857
O         1.96178538329123    0.30672871293316    6.04338547350043
O         4.95612926614742    3.01324500590417    7.96529722648525
O         5.81909626820411    1.48443446077287    6.57410058396335
O         1.15628337566116    3.80583677897154    8.64805664887753
O        -0.83160546148618    2.78766314164216    8.73043514298521
O         4.53063328661463    3.00520850387125   10.70702819087734
O         4.94193207885240    1.90040658206563   12.59991348950035
O         2.66310489854890    5.14391979224707   10.55209208611226
O         3.59697668251195    5.58179283092054    8.57409291240854
O         3.02264256359624    6.08439649999158    9.67354837712193
N         4.09319131693787    0.10827904106262    8.92509584043834
N         2.01993426087176    2.06748453020394   10.65048975887296
C         3.38440536109886   -0.03355401771950   10.17805755426950
H         4.03668015895883    0.29757840944863   10.98607460315508
H         3.20881005373156   -1.11123297579775   10.31379004371956
C         2.00324182105427    0.64076823864465   10.30637514079572
H         1.44479907248195    0.52227904150104    9.37391971129704
H         1.45911873381760    0.09028086880894   11.09669093377518
C         3.50756143634432   -0.38484267652351    7.77385252973062
H         2.82027235081751   -1.20831900696549    7.95465295913930
H         4.23382081948685   -0.60726772722785    6.99564637176317
C         2.51635528216651    0.79776504794682    6.98418860533788
C         5.33960461098070    0.75638811976453    8.82639916338252
H         6.11730025259095    0.05943507110471    8.49773083724322
H         5.61748200712534    1.25498132769807    9.75364584116303
C         5.36865996814839    1.90446217398184    7.61360275147919
C         0.63740349338294    2.56982097674434   10.61712299521098
H         0.55894453926302    3.45373721921783   11.25635989711654
H        -0.08924343210911    1.81594078979050   10.95202538134551
C         0.26212691991150    3.07973669837121    9.17626569267848
C         2.65120775025217    2.27270014508510   11.96137209483203
H         2.41030228791070    1.47069935389429   12.67513449198622
H         2.32915918220271    3.23267988504686   12.37368393600717
C         4.19673580495705    2.40235741454071   11.77080115916331

