48
CSD_code = SECHUD | q = 0 | S = 0 | Stoichiometry = C18H22INO3P2W | MND = 6
W         7.44347904638744    3.56673079596562   -0.81734885659836
I         7.70178628716093    1.53333293490156    1.06452461595916
P         9.88132174379266    3.50724667677525   -1.23265387179538
P         7.00228837337022    1.72641853297404   -2.41983569474371
O         7.15207633134149    5.80924288039051   -2.72514867989095
O         4.39166702474892    4.10907226757014   -0.40668400680525
O         7.77059443686626    5.96364547020563    1.16671453656783
C         7.70364893001918    5.01370911635630    0.52622690924060
N         7.28364068657318    4.88085129632534   -1.99834468220971
C         5.48959137257834    3.78584239800961   -0.49469767278545
C        10.60455032946798    5.19129314853138   -1.14739777450428
C        11.01972290871135    2.60885170851249   -0.12039984985245
C         8.12466684747295    0.28783933879664   -2.57935006130807
C         5.42686630255640    0.84036751959435   -2.10350529614686
C         9.84354737519281    3.71193907840102   -3.97247311753652
C        10.18588874070626    3.40449386027289   -5.27515158625065
C        11.09235317121679    2.38764523511399   -5.53003565024730
C        11.65423142185199    1.68432300893351   -4.47818258495551
C        11.32382198782873    1.99908306488066   -3.17055902403408
C        10.42112867169158    3.02360257464123   -2.90784595183981
C         5.80947167714370    3.31502112156323   -4.29831938079441
C         5.56167120177554    3.83533357577691   -5.55305781820770
C         6.24370644279879    3.33720701842717   -6.65263079912903
C         7.16696980540627    2.31914246809935   -6.49043812414066
C         7.41741333097033    1.79469033565383   -5.23355538197405
C         6.73578818272196    2.28795707929923   -4.12919927383198
H        10.51849486756363    5.55688482722125   -0.12317623094073
H        10.05176775757094    5.86212283226737   -1.80482397460088
H        11.65437148513028    5.17492794877164   -1.44399881246048
H        10.81052617429033    1.53931512909428   -0.13979136628535
H        10.83871664889335    2.96492320508510    0.89551426170190
H        12.05816135860822    2.79918041225521   -0.39347077605021
H         9.11510358750094    0.60768953131057   -2.90366872454956
H         7.71458700462480   -0.43366378653396   -3.28660946001355
H         8.20869255834025   -0.18427086426566   -1.59903947584785
H         4.59766446935451    1.54811088671605   -2.10647879913964
H         5.48195317763463    0.36418276606545   -1.12306555103177
H         5.25914460544082    0.08146848882552   -2.86922395862202
H         9.12203798157937    4.49489023567835   -3.77953391290328
H         9.73925251523543    3.95288799154734   -6.09086626124815
H        11.35746140658924    2.14097736128490   -6.54726014453480
H        12.35542358130119    0.88604826723747   -4.67392278447933
H        11.76996560048529    1.44031405954162   -2.36100992242762
H         5.28598912210793    3.70860910972491   -3.43382070163241
H         4.84503757906881    4.63363513273473   -5.67415339838962
H         6.05705455136801    3.74669729191324   -7.63426977865806
H         7.70099576979896    1.93116701193445   -7.34591514745981
H         8.15040556716791    1.00971965561544   -5.12186600260735

