55
CSD_code = SECHIR | q = 0 | S = 0 | Stoichiometry = C26H25FeO2P | MND = 8
Fe        3.20955053764264    2.21987796846686    5.33591671112798
P         4.15217705291936    3.64170631610198    4.00018703635390
O         2.89259505003915    1.28673431697577    2.91280713623164
O         5.65456980852640    1.36061996281797    6.57774544099126
C         3.54168709141925    0.75809566605901    4.05624078376585
C         2.90892457108793    0.42299482243855    1.80220684181498
C         4.68955436413148    1.73030569550012    6.06734516400337
C         2.17450206013103    2.68444065735739    7.20020488122715
C         1.81068945766320    3.63667653165931    6.23699376948678
C         1.10556166460377    2.95741441426592    5.19425515305969
C         1.04252780748192    1.60297132487554    5.52334354552845
C         1.75615551144445    1.40987487318009    6.73228722018675
C         5.21959834450702    3.07341935062333    2.63050866466993
C         4.97421535482356    3.28972280582304    1.28111579279337
C         5.83205893289961    2.76599302479821    0.32814163530548
C         6.93652092589459    2.02500868148749    0.71173525556967
C         7.18980104797125    1.81012047325039    2.05787485142452
C         6.33510610613403    2.32937366111171    3.01099735422703
C         5.34085432342356    4.77166197585966    4.81598721634290
C         6.23858912816758    5.54348543086678    4.08298919493116
C         7.11804317916549    6.38941259688870    4.73301000345225
C         7.10840745338583    6.47402788901741    6.11653805567060
C         6.21609166180877    5.71037913654195    6.85064182347785
C         5.33601204503624    4.86222126771753    6.20215350172879
C         3.03753414304803    4.83144295062539    3.17410766491053
C         3.06261258192195    6.19800121669379    3.42722274987264
C         2.15105156119900    7.03644202229956    2.80729435740940
C         1.20593915530722    6.52128705385915    1.93720991891820
C         1.16212463750030    5.15639600250825    1.69682871912218
C         2.06501595794355    4.31509103607788    2.31873343385725
H         4.57156358991661    0.47671243277049    3.78915139450617
H         3.02626447534520   -0.15717746576946    4.38621588560740
H         2.38599480056974    0.92253345988106    0.98688463499709
H         3.93836775509144    0.20426232812861    1.49115023644581
H         2.40369970268692   -0.52301237880108    2.03306110170592
H         2.63927938660668    2.88064316768617    8.15235501539658
H         1.90084841476721    4.70820243647065    6.32749167321881
H         0.60024050626635    3.43748203424450    4.37401884736197
H         0.52958246307605    0.83870700580964    4.96496065536455
H         1.80324329212458    0.49170013787147    7.29526840540467
H         4.11613496377527    3.86772545506556    0.97063064409021
H         5.63511287295550    2.93719133768898   -0.72063685640698
H         7.59965433999468    1.61501325550799   -0.03596145790514
H         8.05129242060408    1.23320938444814    2.36136955649768
H         6.52096359441461    2.16664500429717    4.06469066180908
H         6.24366537966477    5.47729090738778    3.00319057691983
H         7.81450033427288    6.98474593901151    4.16033875270498
H         7.79895238398875    7.13379061911874    6.62109070408211
H         6.20996206508263    5.77372908090597    7.92896508623923
H         4.64014590795161    4.24911618673402    6.75909365961860
H         3.79205279544592    6.61095545341336    4.10928565819798
H         2.17877294733427    8.09787076039496    3.00803643832783
H         0.49824287097129    7.17952195137881    1.45471533333364
H         0.41575073497616    4.74983870741711    1.02899047003525
H         2.02564048489125    3.24690367318359    2.16751904495401

