73
CSD_code = SECHIS | q = 0 | S = 0 | Stoichiometry = C36H30I2O2P2Zn | MND = 4
I         1.45740105335337   12.53964112049664    2.20092248367998
I         1.31088379741702    8.55870186762521   -0.40616747683065
Zn        2.02092879879831   10.32109667326203    1.20404714247493
O         2.43337493370696    9.23523239465850    2.88302016410809
O         3.99092222182143   10.55918508185540    0.72993219651332
P         3.30072156360172    8.15241844330259    3.41531651239202
P         5.10796349984343   11.52700850521814    0.56016540069722
C         4.82315165289491    7.91746326363923    2.44606665653809
C         4.72097982912950    7.23903425423367    1.23778329504435
H         3.76553199970057    6.83938051172332    0.92563183883274
C         5.84064247602253    7.07614935411475    0.44356206553326
H         5.76039651041242    6.54677620429599   -0.49382510816805
C         7.06018700730496    7.59198659366671    0.85168690932720
H         7.93549598153945    7.46341442590637    0.23244643082444
C         7.15875712292186    8.28033736432366    2.04913469763195
H         8.10783056570005    8.69103080704257    2.36217975631526
C         6.04266500266580    8.44137201942242    2.85118585910773
H         6.12124962674675    8.96674217220344    3.79344898870696
C         2.43738499518065    6.55942698799281    3.39052519473499
C         3.12088670468579    5.35264615119574    3.47126438882720
H         4.20003765537166    5.34633281420907    3.53823364833201
C         2.41495414337077    4.16484644994362    3.44030836938236
H         2.94309263195878    3.22437023642845    3.49612938805140
C         1.03315811668199    4.17959491850329    3.32649940927965
H         0.48780572646442    3.24838253747511    3.29275870851682
C         0.35171062005765    5.38257516839437    3.24742457096135
H        -0.72314036102749    5.39325684213867    3.15004153096796
C         1.05342304963379    6.57374941238756    3.28409837007759
H         0.53727897380391    7.52095019915501    3.21605090173253
C         3.77241863210712    8.52447728623866    5.12575167440328
C         4.63932818289513    7.70185987276170    5.83446838062773
H         5.05683006562930    6.82511264838014    5.36020077112933
C         4.96578231702150    8.01564996415678    7.14038745607888
H         5.64176206121850    7.38055995446475    7.69377138950285
C         4.42617416926279    9.14384141813706    7.74057532186591
H         4.68492329804557    9.38436583403554    8.76111285826819
C         3.55593566879134    9.95970314842829    7.03668237362175
H         3.13278994128041   10.83644895654441    7.50413821716056
C         3.22656703633244    9.64956491433428    5.72851193576836
H         2.54948610275254   10.27782735461887    5.16730016818672
C         4.58530410586619   12.97597062196355   -0.40849840400005
C         4.49317616833912   12.85711097556241   -1.78981191158052
H         4.81755694975143   11.94525975226958   -2.27294345342234
C         3.98558574909022   13.90377161242778   -2.53767887867493
H         3.91106547633849   13.80998764710541   -3.61082991577195
C         3.56483443552376   15.06458507019263   -1.90866933698767
H         3.15903338603055   15.87646923148712   -2.49317834445745
C         3.65576354365301   15.18215736348278   -0.53155452656330
H         3.31601834064023   16.07946889230858   -0.03798647595634
C         4.16794987368947   14.14105338407136    0.22153034828660
H         4.22633760754720   14.22735837979422    1.29681069443063
C         5.73694627940259   12.14292724910142    2.14265900782579
C         6.66879157684655   13.17422247985228    2.19741357687744
H         7.01572063806756   13.63422169765894    1.28225855765921
C         7.12235160490590   13.62304277080240    3.42364165259080
H         7.84640700118807   14.42310557274055    3.46913391696837
C         6.64062135981686   13.05654891872829    4.59423771589762
H         6.99488811187369   13.41431166586714    5.54944063591703
C         5.69519258184619   12.04629182644639    4.54181524208799
H         5.30379010118321   11.61676894702792    5.45256772215298
C         5.24416802138716   11.59126554291949    3.31597561941971
H         4.49702202551742   10.81306158526542    3.26097560660876
C         6.43733345859488   10.71543829207196   -0.37298353934599
C         7.78464126064904   10.99502929702066   -0.19817292413972
H         8.09930608550106   11.69588453269136    0.56076748533753
C         8.72518739571631   10.36208527287566   -0.99153574328898
H         9.77483760388303   10.57664104513909   -0.85306955172599
C         8.32493745871423    9.45980010188328   -1.96406775800270
H         9.06339063348286    8.97675952581447   -2.58699367525227
C         6.98058519963689    9.17067720195984   -2.13213083399388
H         6.66600665283445    8.46159932559380   -2.88332976294184
C         6.03880479482852    9.79198565411325   -1.33300774031352
H         4.98927114249023    9.55572443681712   -1.43845784583658

