57
CSD_code = SECJAM | q = 0 | S = 0 | Stoichiometry = C26H26Cl2O2Ti | MND = 12
Ti        1.78921523898221   11.07511612483530    3.30198574989063
Cl        3.22851038123619   11.85676793858312    1.78254184826306
Cl        3.45444521109213   10.85621877273741    4.76821954575479
C         0.53868040010217   12.97690204573820    2.76259302502328
C         0.34195148678604   13.51705888018349    1.37232509450163
H        -0.49072951034026   12.99557981410015    0.89136193936995
H         1.24794626590077   13.35963603144669    0.77957617147689
C         0.04767620015966   14.99472858962421    1.46048339823376
C         1.04486918960824   15.93572607141206    1.23132481010108
H         2.03542538648526   15.60620559211186    0.95340051593164
C         0.78287144669133   17.28362621230509    1.34965679771443
H         1.55017671785108   18.01977743346186    1.16963064832129
C        -0.49072561213708   17.72858518028595    1.70656781945302
O        -0.64661980385694   19.07999619291223    1.79201370061297
C        -1.90923257044456   19.58974102366338    2.14218780467636
H        -2.67452035992862   19.30690154799322    1.41172010713205
H        -1.79961537632412   20.67309888338754    2.14543590718680
H        -2.21675688167234   19.25535639669562    3.13854936527809
C        -1.49083520030412   16.79289000915112    1.94394359115887
H        -2.48646332393601   17.09984739347427    2.22348120516029
C        -1.21297074627511   15.44189216771155    1.82238654025285
H        -1.99915357031118   14.72526935131456    2.01361629512330
C         1.54792859232423   13.38717646844389    3.67586587520979
H         2.31394098314424   14.12557981727372    3.47660861972712
C         1.30230102574918   12.76600628710642    4.91347298012237
H         1.84777319582495   12.94297505798559    5.83161087699183
C         0.16548085791501   11.94222867146672    4.77241401389407
H        -0.33388876649833   11.41936891308629    5.57874764787042
C        -0.33160547014638   12.11553117383210    3.45822119544636
H        -1.27613586945221   11.74210288859902    3.08532963998914
C         1.48901533990026    8.81326068518820    3.81973882167448
C         1.71680987465752    8.17696769874928    5.16324051269488
H         1.27029495969486    8.78790959130268    5.95360590739023
H         2.78992545854886    8.09963173057986    5.35291316678452
C         1.08891491614804    6.80407666774038    5.15809172613077
C         1.66367668948317    5.77552415177026    4.41743353549685
H         2.57512637535171    5.96106194661312    3.86890212819429
C         1.08614426526121    4.52637852768279    4.37693086422130
H         1.52849338986955    3.72381422076344    3.80836500403649
C        -0.09357106820003    4.26869094239776    5.07818482418387
O        -0.58174036208075    3.00054098756943    4.97428856309962
C        -1.76278736485944    2.67646174720889    5.66503894950303
H        -1.64467201266133    2.80261303405122    6.74637927908035
H        -1.95486317829039    1.62741230341459    5.44520925727438
H        -2.60991652569665    3.27828305625161    5.31923547349396
C        -0.67648972155479    5.29151378796793    5.81537445704152
H        -1.58750013406428    5.13000822792042    6.37014568486861
C        -0.08414998526192    6.54427340535880    5.84575396702145
H        -0.55014059476265    7.32717557526691    6.42789179056130
C         2.41058729411256    8.87253903784655    2.74308239699333
H         3.43253285657091    8.51400177172074    2.76392900618670
C         1.74016251733319    9.38610120197731    1.61455656928804
H         2.15242348487585    9.47489700319433    0.61767170548635
C         0.41358178876947    9.67410105368239    1.98827020247204
H        -0.37568533672403    9.97341417303116    1.31035321403297
C         0.25218604950400    9.29363875856991    3.34294942934650
H        -0.68409849416314    9.24451778124855    3.88289083357210

