48
CSD_code = SECJIU | q = 0 | S = 0 | Stoichiometry = C25H21NiP | MND = 7
Ni       10.04032704864420    0.82776151922925   16.38082629170650
C        10.79113312945269    2.51273586747585   16.24413659076622
C        11.29430107652163    3.60637597629695   16.15184258079573
H        11.75130358320155    4.55249239925006   16.08220995484199
C        10.05901044309655   -1.28890244025829   16.20800881542666
H         9.51042346103759   -1.97434062386397   15.57670787736220
C         9.66524951099570   -0.92539912458214   17.54695769447910
H         8.78710847356918   -1.30405925803273   18.04911115062477
C        10.69407739887138   -0.19193639843979   18.12059686275605
H        10.76815802686632    0.13604100239911   19.14509709891365
C        11.70422166959564   -0.02054898408957   17.11556249878472
H        12.68601965062195    0.39372864250267   17.29508851444305
C        11.33977250233290   -0.79672336185546   15.97429997085264
H        11.96897948182076   -1.00117557650012   15.12276676281653
P         8.14485299001411    1.37687415699847   15.56012041016574
C         8.24170091439028    2.25528058872202   13.96510939500367
C         9.43364626956138    2.14511888441222   13.25652763784187
H        10.25737568935639    1.59693272596305   13.70764327838575
C         9.56601536044181    2.74446808622992   12.01804164085345
H        10.49292317532865    2.65679952959546   11.47100904965294
C         8.50896669163199    3.46390855834895   11.48418361692178
H         8.61011196172266    3.93773582227230   10.51884345499677
C         7.32372120388155    3.58409314312160   12.19164403148423
H         6.50356941414238    4.15262453127765   11.77779130251977
C         7.18478773624246    2.98042821298217   13.42883131047465
H         6.26150877988772    3.08376848260964   13.97940029472110
C         7.05512805058534   -0.02822338670610   15.16116821429855
C         7.00122409708016   -0.56092134176496   13.87828597152641
H         7.55709596045359   -0.09013573316680   13.07906312990512
C         6.23994779123788   -1.68963674810955   13.62951802683281
H         6.19834539151738   -2.09878836438300   12.63046956768977
C         5.53859028706519   -2.29819179394875   14.65715981447642
H         4.94892507814738   -3.18143533541902   14.46049276216679
C         5.59977961346498   -1.77766934393139   15.94070256902027
H         5.05834993445442   -2.25541912014217   16.74450629024362
C         6.35929038540131   -0.65169208083379   16.19411349333088
H         6.41665039446945   -0.24243832571811   17.19460610948271
C         7.06566102529754    2.43783182987799   16.57185232338799
C         5.68251730373656    2.46949865174065   16.41835442259961
H         5.19945523475701    1.82214921632147   15.69880676415281
C         4.92181326059190    3.31665032231655   17.20390961601648
H         3.84829993444824    3.33957214308090   17.08312719340113
C         5.53114263415522    4.13028941653427   18.14567375731103
H         4.93086121803578    4.78747999102634   18.75753288469606
C         6.90644653341213    4.09253449166157   18.30861467489275
H         7.38108887732062    4.71861957472643   19.04936877583346
C         7.67224676166761    3.24728384353302   17.52635424475088
H         8.74987458945018    3.19395973123308   17.64156130638836

