70
CSD_code = SECJEQ | q = 0 | S = 0 | Stoichiometry = C39H29NiP | MND = 7
Ni       -0.31933741211189    5.14228146715033    2.59403213141692
P        -0.21257617021173    3.13710687735271    1.83894752877554
C        -1.98702274862134    4.91047370755702    3.34148534096095
C        -3.09484645357236    4.66440431467441    3.77839498626441
C        -4.37468338611236    4.33194558902784    4.28099598509109
C        -5.12815815064400    5.23780560505314    4.96744694520004
H        -4.74840900805643    6.23538266385586    5.13744490904051
C        -6.41080090799197    4.90431070577736    5.47273506873932
C        -7.16243966891064    5.85761040143549    6.18149040206801
H        -6.74064013965248    6.84206389533254    6.32865769985505
C        -8.40229346646800    5.55199687167773    6.67845459698767
H        -8.97265068162059    6.29081254414440    7.22263328680865
C        -8.92876389483273    4.27519158917588    6.47890074163016
H        -9.90585545317456    4.03202936004269    6.87105655712524
C        -8.21301932865052    3.32768611490419    5.78852577681172
H        -8.64987968029619    2.35054161080276    5.65319361620452
C        -6.94101084696902    3.60722861131360    5.26610574919934
C        -6.15496406175649    2.63953469146536    4.53711431049672
C        -6.60211455440530    1.33281542297316    4.28083910073891
H        -7.57303994473796    1.01829362289828    4.63040568807019
C        -5.83113883712708    0.43113021604705    3.58928658079659
H        -6.20393059241859   -0.56690332187574    3.40754374640853
C        -4.56900019090968    0.79598259256062    3.12209836270870
H        -3.96149525217645    0.08500988402365    2.58112535958150
C        -4.10387829614221    2.06434232906952    3.35356845229519
H        -3.12917037344231    2.36689560694940    2.99892445831777
C        -4.87708338404160    3.00208417036060    4.05315244440344
C         1.69961327251593    5.81542475132810    2.65104124547165
H         2.64585535846027    5.29827083627391    2.71885177155710
C         1.08316807792633    6.22205244508656    1.41208388519396
H         1.50505518032283    6.04212392010885    0.43314694122961
C        -0.00059734888519    7.04064469730642    1.70799100903858
H        -0.59782599603069    7.60637694338295    1.01055841286757
C        -0.13245343460950    7.06585796659677    3.13355338819937
H        -0.80240513866060    7.71422595438729    3.68029980581145
C         0.99067372736952    6.38369085277953    3.70262296374224
H         1.25668388323981    6.37410210424040    4.74762156250482
C        -1.63888098775738    2.67398479613064    0.79824804285770
C        -1.91867712422757    1.36096429707953    0.43802843956796
H        -1.28543338878249    0.55642953035363    0.78156573763180
C        -3.02354628721335    1.08439698328033   -0.34668800837158
H        -3.24426188419882    0.06290766034735   -0.62057792493538
C        -3.84980362660201    2.10975106068308   -0.77718544720726
H        -4.71485991806130    1.88542951368656   -1.38341878487389
C        -3.57030147257473    3.42000504248440   -0.42525207618857
H        -4.21536092773381    4.21990235797687   -0.75655761435257
C        -2.46842306769575    3.70095635294438    0.36040219123036
H        -2.24410600396530    4.71937616093981    0.66994619067322
C         1.20246293061537    2.81428543558968    0.73887260643832
C         1.07901236743705    2.90592136561857   -0.64270083341459
H         0.10987260578649    3.09972005700564   -1.08205164935654
C         2.19393290689194    2.74968511337123   -1.44765119234978
H         2.09414112012338    2.81793553818431   -2.52127496321401
C         3.43530070197881    2.51313768713643   -0.88075975842185
H         4.30402315779452    2.39582403246214   -1.51173257142262
C         3.56491369545798    2.43451725974914    0.49738496294521
H         4.53430823811779    2.25671452478933    0.94034215896403
C         2.45494218844541    2.59078845272087    1.30531242434967
H         2.54710196131575    2.53632969078823    2.38270884528792
C        -0.10970051010639    1.76250328852876    3.03003014652962
C        -0.61891341901898    1.96874078135804    4.30775334840550
H        -1.00429997621047    2.94942817664569    4.56310292969676
C        -0.62465826153398    0.93786059924544    5.22949019900904
H        -1.02719057285827    1.10297835969875    6.21748554279332
C        -0.11063863252201   -0.30146003727965    4.88520079407511
H        -0.11319338572357   -1.10777255387728    5.60367886775640
C         0.42011380456230   -0.50446591516437    3.62140026886548
H         0.83395843487636   -1.46693344758572    3.35699652121209
C         0.42350838606424    0.52133643973362    2.69349559519805
H         0.85509225067885    0.36069378019324    1.71467419902579

