65
CSD_code = SECKUG | q = 0 | S = 0 | Stoichiometry = C20H39NP2Si2Zr | MND = 8
Zr        3.49969574465660    5.65455898953063    5.33530297408198
P         0.99648109215421    5.24206454185125    6.53205125163750
P         5.41265737080317    5.08877083976211    3.36411574545709
Si        0.83962332342957    7.10324155758519    4.10789476695881
Si        2.48432744840732    5.42073265458746    2.20091604759810
N         2.02944933893665    5.93071432768412    3.76382099717731
C         4.26857314801182    5.77508431226585    7.47078689210473
C         3.62211214810906    7.08798592593314    7.41619058921267
C         3.79884368255800    7.93782104340349    6.35373069583331
C         4.68993983978027    7.59473413094649    5.23044877988284
C         3.88112854412512    3.47358416492163    5.37616090952479
C         2.87092955304850    2.58503556848821    4.96854176244619
C         3.01776650419162    1.20649236941892    5.03172092721985
C         4.19270760985708    0.65595079822224    5.51519981927663
C         5.21444093565273    1.49523590391507    5.92834877743018
C         5.05582113793198    2.87152946020016    5.85616089730088
C         0.43682971053019    6.90051988921309    5.98574808446779
C         4.11368375425548    4.39637954399876    2.27011743929524
C         0.35739982315904    5.23022756968815    8.27316131493634
C        -0.33491741183265    4.21917714248567    5.76192648285213
C         6.74342111134394    3.83757932071398    3.02115079404568
C         6.04710359633857    6.43998823640047    2.26791409401364
C        -0.81171640785831    6.90869047338823    3.15306509746277
C         1.38393756633068    8.91759002595500    3.78964642190549
C         2.70488266019283    6.85369363919699    0.94017879859049
C         1.21051343149142    4.21924497485564    1.41060386454171
H         4.01632774152582    5.20189832451201    8.36733616396549
H         5.36197579131592    5.81682323839256    7.33571537247339
H         2.93342042039437    7.37195756566676    8.21641850880884
H         3.26008739691842    8.88811502042501    6.33675100838523
H         4.73190905146407    8.38368847995644    4.47122046742041
H         5.71556403394280    7.34575510607803    5.55629627016610
H         1.94208996919124    2.99017381272690    4.56334131453102
H         2.21758660371844    0.55562841969686    4.70100639061814
H         4.31283178936685   -0.41748718658065    5.56659702503333
H         6.13709151057958    1.07044823467742    6.30359219104034
H         5.88349142823157    3.50743200021692    6.17852508577139
H        -0.62896130987051    7.01898396743332    6.19192646321651
H         0.97722106585786    7.64760589993420    6.56826195545610
H         4.52561238595059    4.27299458916395    1.26557898628250
H         3.88424181055060    3.40228377288276    2.65867139289428
H         0.44222558150895    4.22397254204453    8.68025204791893
H         0.95873615012826    5.89906758251049    8.88532557501215
H        -0.68469931839485    5.54728157670676    8.30827989613321
H        -0.26653354305569    3.19594494060624    6.12906792930605
H        -1.31862943306228    4.62255629150729    6.00290588857840
H        -0.19612202522085    4.22112918020751    4.68276575551983
H         7.67993727327140    4.17245115780845    3.46438240603514
H         6.46051311457664    2.89090458863962    3.47767697789111
H         6.88179169859027    3.69862757126488    1.94949887705004
H         6.97079133954239    6.83902412056482    2.68525297622842
H         6.23863998101289    6.07304387758603    1.25976456085463
H         5.30926456811897    7.23802274296257    2.23043428120022
H        -0.63567730463628    7.05016375473331    2.09288028701988
H        -1.25854047418700    5.92933361355812    3.28168638826480
H        -1.54131616422645    7.64918551215007    3.46435338081741
H         1.25227726033495    9.16174405636175    2.74123731962224
H         0.80110931400994    9.63023828281078    4.36513660499510
H         2.43119602928407    9.06827136032423    4.03135001137296
H         1.73257375271996    7.16272856241894    0.57237542411253
H         3.16564474955918    7.72367153919306    1.39625392146170
H         3.30307940494785    6.56792869703445    0.08128552545143
H         0.24743703285414    4.70487218000652    1.30634135994886
H         1.52412183868072    3.89832835209118    0.42272920653357
H         1.06605422888021    3.32797926712655    2.01312057735284

