59
CSD_code = SECSOJ | q = 1 | S = 0 | Stoichiometry = C27H24ClIrN3O3(1+) | MND = 6
C        10.55530304802899   14.72235474174074   13.60887543683941
H         9.62622184088530   15.28728777436454   13.56271481424057
H        11.30866620561213   15.29757577762225   14.14796553992641
C        11.02342286631488   14.39739212511906   12.25697995300948
H        10.25862286789577   14.10926192048128   11.54714168384610
C        12.29283077392341   14.45570189269540   11.86278209016132
H        13.07991098022585   14.76160166987946   12.53348953587443
H        12.58556253285088   14.23800795403874   10.85061752924628
C         9.21472145810662   12.13582342959106   13.38973490438415
C        11.99666417046276   10.18832620488702   13.29234066317209
C        11.34372967668923    9.92042936623044   12.09663193093358
H        11.41823447096418   10.62018257881471   11.27705720795705
C        10.60539301101666    8.75882644617804   11.95462160693561
H        10.10400268064533    8.55352640667148   11.02161733561968
C        10.50811260548454    7.86537367598609   13.00818674196386
H         9.92731187156815    6.96269287793862   12.89891332426474
C        11.15457474933758    8.13126443094295   14.20343431587683
H        11.07560384579943    7.44107237310147   15.02881694208216
C        11.89591008263820    9.28982958650695   14.34799160572017
H        12.38296020128219    9.49497675602078   15.29027911215738
C        12.76088376012365   11.48188323587415   13.46027728414915
H        12.78588008532876   12.01931857193918   12.50473153015644
C        14.16857416682025   11.34785956423797   14.09158571389205
H        14.43872051947091   10.31015167079099   14.30082756978264
H        14.95166440492512   11.81230655657738   13.48926726748550
C        12.86735831958012   12.54315644692868   15.43017894314848
C        12.35672341559942   13.28543421136051   16.57355275435269
C        12.99528909062039   13.56303789943209   17.77727171111836
H        14.02209203448701   13.26911839754592   17.92364411011170
C        12.26729722147027   14.20174762029288   18.77396787744156
H        12.73518297323774   14.42994536446799   19.71867203112018
C        10.92799658058949   14.51508793200678   18.57165479956729
H        10.32870695536548   14.97009215965027   19.34357376818749
C        10.36025705108941   14.20409835883731   17.34146955836135
C         8.96531113041055   14.31706403098915   16.93990651692382
C         6.77745151290555   14.66668442959233   16.97761652855943
H         6.31830023369992   15.65072994950463   16.85823335180585
H         6.12140229062235   14.03056574211148   17.57469609529342
C         7.17444938652667   14.02061985974562   15.62645186366503
H         6.71623174456202   13.03436768667630   15.49734981295569
C         6.90118503729818   14.86556556451625   14.40316576348253
C         7.29588569090243   16.19866359354751   14.36954328830626
H         7.78063190630642   16.64560131201014   15.22662978559718
C         7.07195723129598   16.96257462727055   13.23774256167403
H         7.37565871199609   17.99786865955614   13.22134909514599
C         6.46066895351558   16.39872257833753   12.13017010740461
H         6.28466261051330   16.99631393548298   11.24955892767840
C         6.07488252336022   15.06920125460508   12.15619124407523
H         5.59690568407899   14.62728252101258   11.29604636529938
C         6.29723667917960   14.30279501355004   13.28737477981281
H         5.99200113869273   13.26748525795737   13.30723746519442
Cl        9.80121860521418   11.03231927531368   16.27028266283923
Ir       10.16193148009259   12.95525205972281   14.79515802488926
N        12.06984730710837   12.31331104367589   14.43532818011984
N        11.08022392787629   13.63343115448994   16.36790888429952
N         8.61358537075650   13.84605649511462   15.78533251377798
O        14.08745456012210   12.05587749360297   15.34022077387654
O         8.01390781384077   14.82703296794947   17.69177233034222
O         8.60162195068347   11.56506751491451   12.62376588389243

