86
CSD_code = SECTAY | q = 0 | S = 0 | Stoichiometry = C42H35N7ORu | MND = 6
Ru        9.97780555362237    8.31103252701378    3.02918091130423
N        11.50664355314706    7.02733214331136    3.17773142233457
N         8.72622202406871    6.91979300502388    3.74081672066254
N         8.47076889421143    9.62893231979283    2.99761194278378
N        11.25147495000262    9.73625354233939    2.43423789249156
N        10.35360394038738    8.88874536894288    5.00600579527082
O         9.43189592256437    7.46931549633702    0.20985547441840
N        13.30084235601850    8.47741007370757    2.49426108227163
N         6.70489207601089    8.22176511526039    3.82848404648972
C        10.27751043822741    5.03305694424219    3.88420283774804
C         8.51633919051372   10.90924648823274    2.55314522270959
C         9.66232608654466   11.56570937248254    2.09468225278002
C         9.01498420773551    5.62127089177040    4.00426339064239
C        11.43984465980427    5.71462652235337    3.51119160827647
C        10.39039947178193    3.57815971971011    4.16174993807792
C        12.59049009285408    9.56490801638476    2.27332474514892
C        10.94162367739691   11.00264138362709    2.06146505777898
C        12.14933909725605   11.67756673696950    1.64821670819840
H        12.18926685598425   12.69331361068294    1.30322215552040
C        13.16662876830142   10.79553784118763    1.78600530968462
H        14.20887480113299   10.93147880753203    1.57716034792147
C         9.50904972210588   12.95563513782970    1.59367438664469
C         6.82183211549377    5.87670351929447    4.44472310718177
H         5.79065777510504    5.75797522635856    4.71114399627714
C         9.64369761635569    7.79655965103587    1.28952125210990
C         7.81346830492238    4.95562115233051    4.44916882417569
H         7.76040230126096    3.91964883656612    4.72540572701524
C         7.19083986536938    9.35555379409338    3.36533609708286
C        12.76520059720704    5.14598062305763    3.44099559085313
H        12.99740001382127    4.12019060808111    3.65592105561118
C         9.65312234039633   14.04222191080486    2.45677312757397
C         7.19630993054304   11.48597382176979    2.65121519506311
H         6.95026692707061   12.49090521613960    2.36496111410417
C         7.40308561476389    7.11517029186586    3.98380095834009
C         6.38071201681791   10.53228437531111    3.15833169944638
H         5.33192871981517   10.58683167138740    3.37170249834834
C        12.80172566340933    7.32401873113165    2.89019691021223
C         9.22150170918711   13.15899452217892    0.24405626618824
C        10.37822814990367   10.17606776987919    5.35943960880168
H        10.20064348404243   10.90196163838312    4.57709595449307
C        13.60610687371509    6.13842126085984    3.06723405637279
H        14.66532497728600    6.10071325050293    2.90910956241932
C         9.96003469528593   13.81602494791281    3.90810547346264
H         9.17848678061946   13.21322743218607    4.37146244339731
H        10.02757018575018   14.76266139015993    4.43851492913711
H        10.90788749189924   13.28821036577830    4.01787796394952
C        10.19346003403053    2.67321052053143    3.11682484060678
C         9.50881989576963   15.32513631505321    1.95450981996315
H         9.62041952767909   16.17068106133426    2.61905052813312
C        10.68806364096920    3.12102417145775    5.44428150385429
C        10.29999047176761    1.31611692984882    3.37435316309963
H        10.14869145768742    0.61150925946093    2.56857562078457
C         9.08270781690354   14.45634125216639   -0.22701708234912
H         8.86025018929899   14.61519237619295   -1.27286308880150
C         9.22379121697309   15.54943337511396    0.61388570669874
C        10.59625266388581    0.84053736891929    4.64492324042597
C        10.78701532839954    1.75581404866614    5.66881456728500
H        11.01717913647104    1.40029823340370    6.66358391144183
C         9.06735012364205   11.98367039648595   -0.67226511362989
H         9.97996919901980   11.38808232770936   -0.68530436158351
H         8.84728141382194   12.30913598903825   -1.68573728935152
H         8.26076580057330   11.33623859207466   -0.32883178714809
C        10.57514158943165    7.98569497203366    5.96415246910590
H        10.55491986511502    6.94475597355054    5.66978399283035
C         9.86978257238517    3.17685046833327    1.74330472870092
H         9.76448806634169    2.35157157333600    1.04371021183123
H        10.65497634212807    3.84257012434136    1.38575771144697
H         8.94047840214259    3.74613126135247    1.75589052523195
C         9.07345096465934   16.95006825314698    0.10196487073429
H         8.26006300363829   17.45758356939041    0.61941887733020
H         8.86268606040124   16.95510148620976   -0.96429572196004
H         9.98543508819909   17.51905266185511    0.27901860736565
C        10.89418254060887    4.09865210387323    6.56392483586845
H        11.71562823642042    4.77643123674514    6.32985919828484
H        11.12710360867542    3.57889139080626    7.49010968948607
H         9.99367167362704    4.69423930783836    6.71709063173434
C        10.84550879465700    9.66142096643203    7.64410389990234
H        11.03401104538407    9.95999673526661    8.66383505561860
C        10.61794119978800   10.60314433482554    6.65341904173213
H        10.62460165756633   11.65896962687051    6.87443950229663
C        10.82241363537016    8.32386991078566    7.28279986355605
H        10.99261735752732    7.54597446383557    8.01051267686850
C        10.72239713282083   -0.63248631295974    4.89115324439830
H         9.91224630855113   -1.17419611564161    4.40671377673019
H        10.70592770260855   -0.85291260233471    5.95564025376675
H        11.66235874534858   -1.00135067915002    4.47982521693697

