49
CSD_code = SECVOO | q = 0 | S = 0 | Stoichiometry = C22H18I4N4Ni | MND = 4
C        11.99695581339903    8.46695079017113    7.13349516177991
C        11.53782423378221    7.14968645745339    7.17414323603798
H        12.03350114198972    6.48333163482888    7.86216793908083
C        10.52236787263277    6.60059749569125    6.39034811638401
C         8.91872694460001    6.86285846853493    4.60094676107773
C         8.99842517142281    5.64250105180114    3.94715675909133
H         9.79940684399002    4.95567906675150    4.15784917958043
C         8.09308664620766    5.31310231142696    2.94468146933085
C         7.12751468027997    6.22333023253795    2.55836472211717
C         7.05936071006629    7.46942999124231    3.17163192772973
H         6.36344209030485    8.19134938044396    2.78200449645051
C         7.92443401330556    7.79994064978525    4.20383313539997
C         7.02265204352717    9.89890220918626    4.99692083341108
C         7.24523848422562   11.18666902756634    5.48640106933103
H         6.37556408057249   11.80613768065797    5.63773703800602
C         8.48385119448236   11.76397447705114    5.76842524636942
C        10.89537845009535   11.60243513000810    5.74503077924116
C        11.27620604178527   12.88001054934993    5.36312068404353
H        10.55522463637955   13.57573590900444    4.97084694683605
C        12.61203954197397   13.26375053055464    5.39843229535625
C        13.58270107622507   12.35514257824761    5.77602218941237
C        13.22521703066894   11.05620657392120    6.12074400950739
H        14.01027975480026   10.34607562637460    6.31239221676568
C        11.89431860199969   10.66648786723307    6.13317004204977
C        13.13604270717477    8.79675234716675    8.06032195503233
H        14.09556996030804    8.56853099214242    7.59747608563220
H        13.05414602668241    8.18508637138341    8.95597704214258
H        13.12123478602065    9.84416995808601    8.35131348620441
C        10.23280476793336    5.14041633107289    6.61312147785987
H         9.20311533729067    4.89647029640578    6.36352960298949
H        10.40331203391211    4.90145936382235    7.66066762572518
H        10.90103341617090    4.51353311409973    6.02364947273713
C         5.58644598019922    9.53140019857932    4.73716867964948
H         5.27759117869250    9.84159472211145    3.73953430727814
H         4.95166324889956   10.05259176178919    5.45014786111091
H         5.42436114489492    8.46161937253924    4.84346514278195
C         8.45240839452905   13.18490003303238    6.26405875449844
H         9.31630183793316   13.40873148656997    6.88505833388360
H         7.55104079309779   13.33411145269967    6.85452399312024
H         8.41763664284583   13.88932202684511    5.43360701043977
I        15.63555395969532   12.84724831114533    5.80671096807606
I         8.29218306283565    3.42458311472474    2.02220099187508
I         5.75616750727998    5.81452437827595    1.00676750710570
I        13.08257217773986   15.23634601030835    4.81185467249557
N        11.40894987931574    9.38154309196645    6.36948853027924
N         9.81368172034693    7.34894348073120    5.55166202178582
N         8.02105118975349    9.03605162299986    4.84023048521259
N         9.61118431260915   11.06768060336585    5.66805219366494
Ni        9.72493083512196    9.20990386831261    5.58234554402970

