54
CSD_code = SECXUU | q = 1 | S = 0 | Stoichiometry = C18H26ClN4O4Zn(1+) | MND = 5
Zn        0.34677359873363    9.61667343159749    8.80639946477367
N         1.77855390556383   11.29264062294596    8.89562455457353
H         1.45813042653176   12.06559699279926    8.31732003689335
C         3.37958410099839    9.43600006277810    8.86914697577674
H         4.34246554425772    9.10701277447635    8.45621197128145
H         3.44767306234588    9.40520119084979    9.95924316660614
Cl       -0.46236375766714    9.22320794505502    6.83503831209133
N         2.27855595974823    8.57672784367297    8.45750216887143
H         2.28138580811316    8.50507963489375    7.44032710929210
C         3.08486360874737   10.86007618638549    8.40304094404482
H         3.05186640625392   10.87287538566036    7.31085842561771
H         3.88535891247298   11.53236238633694    8.73953945334030
N        -1.71844506890218   13.84242638551694   11.37720936744994
H        -2.56541527653110   14.33532131488975   11.65037782657605
O        -0.86107140950942   10.85537447199948    9.72120578600937
C         1.81382695604006   11.75514334975211   10.29109600072877
H         1.86613758715225   10.87406443147062   10.94029546650533
H         2.70723945065800   12.36117025613711   10.47409116955168
O        -0.16841919087307    8.02781783829461    9.79593145069639
N        -1.19933286155565    5.21596750693948    7.91532897651445
H        -2.06579720680966    4.77256121432157    7.62022189617927
C         0.57487956330815   12.52166581294248   10.65794457716746
O         2.82675756865702   13.56006984551766   12.40440932099340
H         2.49895916208710   13.44663923934913   13.30300215676917
C        -0.69365011867476   11.94885101553392   10.33352881613458
C        -1.85536159388836   12.68519077487156   10.73808165178039
O         3.30544599917629    4.43178146140189    8.39575452597351
H         4.02791606669560    3.86817104983184    8.09984971261800
C        -3.20210353100814   12.13958660936517   10.44741154241263
H        -3.31814531195634   11.17633539636894   10.94403654103055
H        -3.28693595011050   11.93950468458107    9.37951772949799
H        -3.99464375990540   12.81308509713425   10.76233130130091
C        -0.53180179753483   14.38958228529283   11.68385570421905
H        -0.53789670812096   15.33507478402223   12.19909276406905
C         0.63927198544863   13.74322339709148   11.32706642595515
C         2.36029212741859    7.21905574597988    9.00592476768368
H         2.36697566601982    7.30212886693884   10.09756114535657
H         3.27398737914765    6.70677069704522    8.69296286824371
C         1.13506130018211    6.44428748044636    8.61474854609605
C        -0.10257559833346    6.98043267441812    9.07365209451432
C        -1.29207249633138    6.30563424053450    8.67178355359086
C        -2.61704974758526    6.86145136918664    9.03288190541801
H        -2.72127306901612    7.83785600685844    8.55544208635933
H        -2.66177373653498    7.03510101733844   10.10646449325387
H        -3.43279864556538    6.21369909477002    8.72322576047809
C        -0.03880421211823    4.68837759094487    7.49739030696427
H        -0.08847488200701    3.79926473681991    6.89184853073047
C         1.15876558286851    5.29998678959211    7.82564336514067
C         1.96076244076737   14.39780844031360   11.68102607164582
H         1.76791775135617   15.33004673339497   12.22456079670869
H         2.49700929359699   14.65345508301045   10.76090533155793
C         2.44572879005583    4.70164649707810    7.30965615664364
H         2.91875652207227    5.40918400194902    6.60960771270300
H         2.21370340406450    3.78375025330023    6.75712121361541

