76
CSD_code = SEDCOT | q = 0 | S = 0 | Stoichiometry = C28H33FeN2O11P | MND = 6
Fe        9.35234558848956    9.92808143520454    1.70202104717438
C         8.00850959959444    8.88629802870870    1.27272736581501
C         9.13012559594852    9.42150472821277    3.35889386558149
C        10.83977107836422   11.13039326799250    2.12365207816737
C        11.65551663413139   11.32518371231483    1.06917277039272
C        11.16696861173569   10.63010215968293   -0.21354039563378
C        11.52375486865568    9.19123950432266    0.09722420874550
C        11.22363965619415   11.52886233488893    3.48153193094060
C        11.19810532082415   13.18360754709484    5.11492359123095
C        13.03707867648825   11.81259800176908    1.14555088774583
C        14.56232878887594   13.07517744371718    2.39972203571350
C        11.70028911378657   11.20415584458842   -1.51682540808042
C        12.72079387830284    8.57970601595323   -0.53942485210326
C         8.92923305306125   10.35075082717462   -1.27153811679025
C         9.01798660587512    9.06803142872746   -1.79206438615559
C         8.23430531009673    8.67884275270628   -2.86473979051591
C         7.33413693941096    9.57363285896562   -3.43413223136086
C         7.24236478140128   10.86464941227829   -2.90926100640034
C         8.03374321628675   11.24713838239085   -1.84948184650160
C         6.54107325321438    8.00566705309113   -5.03927591623558
C        11.05402383499758    7.40494445190371    1.58431941294198
C        11.41291276519866    7.32373707413353    2.92515985391097
C        11.62053755396491    6.09580377880631    3.52224642049291
C        11.45367101681928    4.92290475791365    2.78859478569727
C        11.08479831372225    5.00853475477632    1.44503751612695
C        10.89353002184322    6.23510886284729    0.84632426160117
C        11.96403626034488    3.51211871855159    4.63522557421132
C         5.75106561769701   11.41111683309377    0.97822358563864
C         7.68627351985663   13.21297443281439    4.17768229789807
N         9.68665449257287   10.76273523219565   -0.13403649533824
N        10.82097567244403    8.67590284511616    1.03701322646582
O         7.11658565241314    8.19787052697944    1.07686132265242
O         8.88795332961977    9.12568617300304    4.43086794069793
O        10.91537021501458   12.78664526330626    3.78441344814020
O        11.73859472673373   10.74866688389611    4.25457845251432
O        13.23145730562068   12.63736479436301    2.17899387527877
O        13.92699973900628   11.47541401669895    0.39014867717362
O         6.51514661610717    9.29802790702272   -4.48231629564791
O        11.62071969161406    3.66652949699267    3.27802860187447
O         6.48395484189851   11.25782363751717    2.16851555200542
O         8.29639885159877   12.81545799753584    1.29851107995737
O         8.22551335871313   11.97231307599158    3.74840355654192
P         8.10115318063391   11.62793055366568    2.17223911768461
H         9.69537603572593    8.35367068348616   -1.35119526625918
H         8.33040321466931    7.67257288169572   -3.24027208054312
H         6.54007121350350   11.54991743573588   -3.35561513321840
H         7.94819637314641   12.24490074743859   -1.44592190778600
H        11.53919519526207    8.23755478374590    3.48702743520253
H        11.90621266230042    6.06696500566456    4.56104844494268
H        10.95334181564538    4.09356661662240    0.88977965079267
H        10.59505106661573    6.28725563579893   -0.19045694070390
H        10.65198908134949   12.55290611146271    5.82000235074518
H        12.26803394830777   13.09127954868194    5.31710695945054
H        10.88037130456882   14.21984405213534    5.19956796367441
H        15.13894538311833   12.28672050036849    2.88897238932904
H        15.04056356861174   13.32902759772205    1.45115824289860
H        14.49543798547611   13.94886816983199    3.04345360593268
H        11.35001881164819   12.22896001702453   -1.62517161902185
H        12.78519445906014   11.21360748891170   -1.51795897299617
H        11.34210773940615   10.62512913837648   -2.36581727455073
H        12.57181677701061    8.47024124916987   -1.61257777173891
H        13.56498482079780    9.25366783266807   -0.38979911254892
H        12.94688575874886    7.61051515778600   -0.10167037985819
H         7.52424025545894    7.76793030074360   -5.45836908078856
H         6.26448832592383    7.24494100396699   -4.30254739272656
H         5.80316101563078    8.01593885357641   -5.83964035678178
H        12.93228290429588    3.97069538782221    4.85937911878513
H        11.19890637816052    3.93564620685453    5.29296081667314
H        12.02777746044475    2.43792564785247    4.80113775493905
H         6.08589342042635   12.29952210775554    0.43708020050329
H         5.86092612352700   10.53592222262405    0.33131653070801
H         4.70271156371146   11.52640267650324    1.25580445032388
H         8.01666057181826   14.01487631319445    3.51359933228667
H         6.59472526720883   13.17613217634298    4.18026509958139
H         8.05251627817335   13.38819356360536    5.18887909425665
H         9.47091607107048   11.75616807592282    0.02780224824881

