40
CSD_code = SEDCIO | q = 0 | S = 0 | Stoichiometry = C21H15ClN2Pd | MND = 4
Pd        9.02894693902072    5.08448681199160    3.90950498097512
Cl        8.17552114670524    6.81866188039735    2.83021305332428
N         9.91636669601669    3.47880092252459    4.80525647708718
N         7.08843733891977    3.33981370280122    4.91073756267713
C        11.24206649925877    3.46020120707325    4.63317300979427
C        12.05635900787778    2.57368611422570    5.37009406213660
C        11.48607612941530    1.67099857344994    6.21786242247333
C        10.07916957208651    1.59652965191755    6.31743573524606
C         9.43545618260219    0.59585449571296    7.06738213186137
C         8.07024439237282    0.50574645954110    7.06878569483975
C         7.30739078372781    1.43204916768029    6.35520984235517
C         7.89495872934185    2.46351963305632    5.65094748320875
C         9.31636046373985    2.55425806168132    5.59439137986124
C        11.74422028080117    4.37055372393477    3.61320109269993
C        10.78426942534579    5.19641844574384    2.98721387732565
C        11.17949224012693    6.01901838411614    1.94248536143573
C        12.50259964635231    6.03351190005637    1.52384642603479
C        13.44781367532943    5.23486560465297    2.14894247068869
C        13.07376854538618    4.40395834273295    3.18529817835466
C         6.97926100022433    4.71764242005659    5.18288117599220
C         7.84569451889030    5.38031605544592    6.08012376571622
C         7.65128394538596    6.73589066424634    6.34359060728257
C         6.61624733870954    7.43276521059130    5.74529556507290
C         5.75244177162322    6.77563773867254    4.88168283773719
C         5.91994627828669    5.43169525608468    4.60914759367286
H        13.12711328956688    2.62019355927011    5.26002879011125
H        12.08976727074180    0.98699498480633    6.79601204003411
H        10.04061159927966   -0.11158168960563    7.61364177984304
H         7.57207392297451   -0.27604686326814    7.62118409193260
H         6.22990599112565    1.34440619127872    6.35444726317165
H        10.45824941253274    6.65589686861192    1.44875411705099
H        12.79707052847346    6.67683383567074    0.70735499213233
H        14.47762264888177    5.25810344408821    1.82352473124267
H        13.81781234583695    3.77900255377373    3.65691101451335
H         6.20694096821846    2.92782442674991    4.62628666959198
H         8.55752863666723    4.81613941989680    6.68129014651724
H         8.30585977303099    7.23314427319576    7.04576032486048
H         6.48286987031069    8.48339840975775    5.94857023150856
H         4.94196793462277    7.31343015574541    4.41503562360034
H         5.24051326019420    4.92198000164361    3.93879539602848

