54
CSD_code = SEDHOZ | q = 0 | S = 0 | Stoichiometry = C17H33ClFeN2 | MND = 8
Fe        7.22663062894557    3.55555471570603    7.05087842411010
Cl        7.90441503166378    4.54228973637319    8.89617108441629
N         6.73886523189879    1.64298931404250    8.14376559426445
N         5.21342828718162    3.99248667301386    7.66772219790423
C         7.10647664548797    4.38275845045889    5.03831171139705
C         7.43071499537286    3.00325563657213    4.96401236645657
C         8.68601801601862    2.81493357569216    5.62231701832322
C         9.10348504625849    4.06290216586015    6.13403923281939
C         8.10990746975312    5.03330491472158    5.80281614692484
C         6.05871213607007    5.07142564577593    4.21971982164025
H         5.60706765636393    5.89799671115426    4.77404056269948
H         5.26920578288771    4.37103204579072    3.94128346535094
C         6.68866571722351    5.62934991969291    2.93937698906729
H         7.46636986856891    6.34796521925361    3.18386705946963
H         5.93701191328726    6.12309900632826    2.32630439516345
H         7.13693044419772    4.82607691619970    2.35956550104778
C         6.71608513719887    2.00821497488311    4.10542335831417
H         6.93896680335318    2.18627793785157    3.05142947455400
H         5.63694356768939    2.08478195034284    4.23133040131752
H         7.01628152097874    0.99054403721640    4.34021867511752
C         9.55223500937175    1.59374987832074    5.57913413123107
H         9.03877745055022    0.75254335720504    5.11991463486645
H         9.88663992258148    1.30261475252483    6.57470359907230
H        10.44297418089238    1.80266586772103    4.98373662837327
C        10.39850278683405    4.36716834903721    6.80994976063082
H        11.01243940376841    5.00963836852656    6.17711832096501
H        10.95137072155489    3.45714865882483    7.02624474644209
H        10.21664193576460    4.88998923243508    7.74658361068127
C         8.23497601389380    6.49320372164222    6.09174584741970
H         8.44668300162776    6.63947359851823    7.14905527545518
H         7.32100039264961    7.02728011462529    5.84520883655067
H         9.05741685346884    6.92799652733049    5.52143832913813
C         5.42760913490926    1.80589799846917    8.78755873884335
H         5.41702399688520    1.33033726303853    9.77680191698044
H         4.67088513484471    1.30892536813138    8.17717248581767
C         5.06506440455419    3.28027932855188    8.93846287555210
H         4.03416241977770    3.36626213712174    9.31769587179804
H         5.74605933571307    3.74854418919749    9.65032225623181
C         7.78766535888644    1.45045784313893    9.13855168843567
H         7.65154723196096    0.51321819437109    9.69397367697943
H         7.79284651170120    2.28896459527988    9.82799803157619
H         8.75052468081558    1.43387279268528    8.63445757437190
C         6.70870437818914    0.48846549845012    7.25811744741145
H         6.42476268882619   -0.42725367893744    7.79471049475097
H         7.69241309742749    0.34431578535807    6.82729013338414
H         5.99939882212391    0.66219131269785    6.45320645248902
C         5.01447501593247    5.41925144512586    7.88919180139778
H         4.01580640095100    5.63229342996550    8.28912817394296
H         5.14418139726838    5.94833095630755    6.94970319310627
H         5.76929448633128    5.77177463067110    8.58752400285744
C         4.25417463551393    3.50458114087370    6.68803016714536
H         3.23941020624637    3.45821246679829    7.10445876344139
H         4.54700662691223    2.51676582527984    6.34466056211953
H         4.24634446087717    4.17009950378108    5.83255649018040

