84
CSD_code = SEDMEU | q = 0 | S = 0 | Stoichiometry = C35H41Br2CrN5 | MND = 5
C        -5.60880385960333   10.24401616724323    0.83228861144908
C        -8.24216130089289    8.88162115393448   -2.67667946288473
H        -8.20269390233518    9.04393707476616   -3.74211879858963
C        -8.37881772352593    8.13219602392571    1.55523918310747
H        -7.60438335218387    8.72407861994874    2.05171192093247
C        -2.13284833619723    5.29477599524855    0.07500081011216
C        -6.54648771762751   12.12756647885925    1.66435705657708
H        -6.60467018803853   13.04268161497272    2.21456090604336
C        -4.14811691564988   11.49285572171793    2.12994177624034
C        -7.47777675847695   11.47716486598162    0.93241275383505
H        -8.49890985445583   11.72602190502121    0.72640547361912
C        -2.38031517541057   12.50145766602585    3.37314620055314
H        -1.99917001574567   13.29021808518359    3.99940301801533
C        -3.69513805640098   12.52980570594138    2.92421813665598
H        -4.35792269489949   13.33628976357805    3.18978317571120
C        -9.03288459454635    7.86765689480506   -2.17082553202306
H        -9.60885684991332    7.25027655808634   -2.84385857817151
C        -2.09453884328064   10.44541695134577    2.19894008189167
C        -2.17535458215052    8.51257300946163    0.92406381118679
C        -9.07532725323001    7.62882830223140   -0.81175406453113
H        -9.67761740652342    6.81948921038045   -0.43114895644436
C        -0.07430871057117    7.75198962015992    1.10648380483121
H         0.74503690964089    7.08489589831714    0.92993775324410
C        -0.14162598474632    8.88452629546549    1.84176818257241
H         0.60271496520502    9.38171442366622    2.42688181380891
C        -1.56409425806028   11.44193784004656    2.99732717812726
H        -0.53795660556820   11.38649035743242    3.32023717083245
C        -8.07318657047504    6.66014009305580    1.83638922112531
H        -7.87434710801791    6.52359812042408    2.89584489809489
H        -7.18965012240697    6.34808614583420    1.28536564244063
H        -8.90353514315120    6.01947376495428    1.55093044464391
C        -7.49691150798841    9.68898752662241   -1.82993811064424
C        -2.40522343077469    5.06361049457631    1.54135348725542
H        -2.39712774634855    6.02450665351354    2.06430690457901
C        -2.40157233525614    4.30705864664444   -0.86356822158801
H        -2.81226388212092    3.36445861533359   -0.54008159112791
C        -8.34809967079788    8.41408309458234    0.07304222446855
C        -1.59679465070823    6.49926543671831   -0.38172769199846
C        -1.33848582959284    6.73576561440365   -1.73584998640437
C        -7.58584416450291    9.45698174013756   -0.45483282294902
C        -6.62043326548900   10.78746790637277   -2.38731766021653
H        -5.95852020677282   11.15465974982571   -1.59371870638637
C        -1.64703134155035    5.73035834157613   -2.64006184826637
H        -1.48359469727870    5.88621933633096   -3.69403171811567
C        -2.16869742941329    4.52592348441514   -2.20621006819127
H        -2.40082461263716    3.75435603076637   -2.92484469202144
C        -1.30026500022368    4.18934859350117    2.14036239428282
H        -1.49256338398224    4.02408540121395    3.19745064188805
H        -0.32739700569009    4.66705176436554    2.03666836542209
H        -1.26329362841153    3.22486558481268    1.63794678874522
C        -3.77938215402383    4.43383581388914    1.77029268926660
H        -4.04714612402493    4.51597513339349    2.82013428950402
H        -3.78819002959837    3.38345885559712    1.49046504764681
H        -4.53521909024554    4.95456957458033    1.18792644034007
C        -9.73285001654413    8.53218618287787    2.14541950091699
H        -9.74405835691935    8.32961071383662    3.21346358205317
H       -10.53688550994002    7.96899974336362    1.67674384291569
H        -9.92410166264436    9.59324697220708    1.99326934626239
C        -5.72861273314961   10.26658063030163   -3.51614672586284
H        -4.97921038223963   11.01249766937691   -3.77318601660886
H        -6.30958949714848   10.04917871807033   -4.40815331534769
H        -5.22379567268033    9.35499295647942   -3.20501775909380
C        -7.48207846797425   11.95825643924544   -2.86713476839055
H        -6.85311906828512   12.74994338459068   -3.26876115020965
H        -8.06813168785812   12.36663199141489   -2.04587720591129
H        -8.16675117549052   11.63104226049979   -3.64612286556714
C        -0.77695108281017    8.06419621198757   -2.19616675086982
H        -0.20913711161113    8.51237129437951   -1.37227049291603
C         0.18166445930929    7.91742514351175   -3.37872057897984
H         0.70887906624804    8.85512857003629   -3.54246475303330
H        -0.35352085111278    7.67180306376867   -4.29188285268208
H         0.91576568819759    7.13889459047130   -3.18329427171122
C        -1.92323971947123    9.01439242664867   -2.55969612537222
H        -1.52826712939109    9.94670142036756   -2.95859535162286
H        -2.52872597016817    9.24762317897456   -1.67922364519677
H        -2.56766529429052    8.55668434981331   -3.30690978223773
N        -1.31092394099135    7.53649669047805    0.54848600632725
N        -1.43376365907771    9.34224389993445    1.71806178040008
N        -3.37904833692519   10.43698024600968    1.74920683390154
N        -5.40535393165567   11.36149256345057    1.59358777261836
N        -6.90088431502174   10.33665425679652    0.42876384500323
Cr       -4.11722813719274    8.92307334567495    0.72456231256054
Br       -4.90708407181450    7.37745141178084   -0.82461718674439
Br       -4.73900223464980    7.82224595246634    2.87745698691210

