56
CSD_code = SEFDAI | q = 1 | S = 0 | Stoichiometry = C12H36Cl2MoNP4(1+) | MND = 6
Mo        5.56487413491741    6.19971638450511   11.00080877639795
Cl        4.06383413285779    4.68695927501918   11.65917362517248
Cl        7.46692991455983    4.67982216909689   11.49545413763885
P         5.60304458258100    4.79459330828289    8.96876286820481
C         4.35632190749739    4.86512580849685    7.62842615259941
C         7.15232004136810    4.93716835981569    8.02149822402719
C         5.55897005089640    3.01277580093503    9.34496035423593
P         5.47361415910948    6.68188062483363   13.40628428777897
C         6.21144078648741    5.34492474810343   14.39641991000778
C         3.85674651429452    6.84332497126465   14.24566646394170
C         6.38585070977959    8.13207741291245   14.04091511481726
P         3.78879248183074    7.75649022578739   10.43080593203321
C         3.85541257923028    9.39054928101618   11.25205527663716
C         3.70908205044340    8.31098583338160    8.68950182711014
C         2.07207208627674    7.23334514698838   10.72823562157647
N         6.71978782186763    7.48121004190210   10.49903894908081
P         8.07303529274639    8.29229301001154   10.29790405241770
C         7.94630680912850   10.03210472924593   10.84738428959336
C         8.59797534192685    8.36080113368732    8.55120259283476
C         9.44092629611603    7.52166790138722   11.22007401321905
H         4.45397005610002    5.79874173665133    7.07800238539734
H         3.35605302227528    4.79672008992061    8.05628916879499
H         4.50945132801103    4.03005243377449    6.94479608959641
H         7.19395031843584    5.92084966049163    7.55551953132283
H         7.19364430087422    4.16578885359728    7.25169678325162
H         7.98775136649458    4.81706928536804    8.71120490677255
H         6.30935207241439    2.77779840577784   10.10055406847067
H         5.76574270475900    2.44801308497797    8.43474546675001
H         4.57098588596098    2.74304599229012    9.72257206048027
H         5.70019359894547    4.40721505653644   14.16831074297780
H         6.11662810513224    5.56625363650293   15.46041529826214
H         7.26299395515133    5.23705255602877   14.12953503050083
H         3.26495029286525    5.94870669140291   14.04837451612315
H         3.31435132053675    7.71631288888087   13.88674945104567
H         4.01780457775399    6.93677054161336   15.31994235987576
H         7.42275097426020    8.04832484072476   13.71713887185293
H         6.34604067451163    8.15378125731492   15.13022124667665
H         5.95601149506491    9.04902524316464   13.64125899793740
H         3.78209570308839    9.26977200997776   12.33108469090536
H         3.04493966769158   10.02952799939769   10.90066436382103
H         4.81555905415965    9.84751483575305   11.01215104161825
H         3.33568110676065    7.49832332733994    8.07013862554858
H         4.71488155591499    8.57801969927207    8.36379008635001
H         3.04754397005557    9.17187635759861    8.59034139907564
H         1.92998924051973    7.02923703449596   11.78880254531797
H         1.88236481083687    6.31543735400283   10.17118435258683
H         1.38175914570666    8.01218001249573   10.40343546309720
H         8.92715253983637   10.50027054848577   10.81193411803835
H         7.56495553402330   10.05933554717318   11.86659843363817
H         7.26432934278718   10.56851041581044   10.18918549919933
H         9.39917496995466    9.08781123871069    8.43842877965299
H         7.75112585682892    8.64879359470568    7.92964390602322
H         8.95516754746649    7.37699409495425    8.25232276337535
H        10.39753841552221    7.77093351726631   10.76759223035896
H         9.27953190397600    6.44115232706465   11.19825595202074
H         9.42494589138371    7.85807166382898   12.25504630395071

