55
CSD_code = SEFHUG | q = 0 | S = 0 | Stoichiometry = C29H22O3W | MND = 9
W         0.79880342526101   10.37809777691220   10.59648262999322
O         2.47542491396765    7.77544298664473   10.97611621130610
O         0.53867892252729    9.21152444771600   13.47479760596477
C         1.94691420221938    8.78548065932110   10.81665368160028
C         0.63192695559209    9.70905546464321   12.42616600480478
C         0.03756626707876   12.36432706911454    9.64934498101854
C         0.89135851034055   12.69803459772930   10.72913419713133
C         2.19803797245985   12.21875368042676   10.41836246625851
C         2.13697803692133   11.61172292376983    9.12965397347860
C         0.81194464287314   11.70012686507790    8.66602953704141
C        -1.13533967229135    9.97677804373989   11.36460525591927
C        -1.71275808799014    8.75196702262321   11.03640041806330
C        -0.97839858911348    8.03680175873780   10.05735072263021
O         0.01877206412206    8.62015185101747    9.51878508803650
C        -1.39152251240985   11.83662934913549   13.02233950182015
C        -2.13654658513643   12.86962397725918   13.55665208144877
C        -3.41067229653468   13.15858539282827   13.08448786999969
C        -3.92139309351817   12.37331499682923   12.05616154227782
C        -3.19199808575765   11.32985776764771   11.52779428356997
C        -1.90623637926941   11.03364339156582   12.00025933543289
C        -4.20916001546393   14.29365820840655   13.64734108214659
C        -4.01402187094568    7.82183283461399   10.72737825304400
C        -5.23086135522026    7.42554772020592   11.24926933460603
C        -5.46672975844921    7.51037787443359   12.61157109453406
C        -4.47824692951424    7.99585326884538   13.45149095460359
C        -3.26025436074411    8.39399967417546   12.93411607774113
C        -3.01277322559525    8.30679101209181   11.56606414982858
C        -1.13767591221922    6.34465938068073    8.25344490082411
C        -1.43069614835567    5.07061733257890    7.80636480126580
C        -1.89753570001315    4.11492487166488    8.69403025771232
C        -2.06021712764129    4.43537938888221   10.03266323025782
C        -1.77712385391394    5.70987577675260   10.48504369252709
C        -1.32481807711582    6.68101020882974    9.59294887191459
H        -0.98239172821650   12.70548946453963    9.52521248549987
H         0.63773201039009   13.35114735508285   11.55355625549900
H         3.10561940336997   12.46245316409568   10.95915153668096
H         2.98674046538128   11.26319940446672    8.55800098700219
H         0.46512775462029   11.40981810835311    7.68209499136778
H        -0.40906249389457   11.63165664530227   13.42440767136905
H        -1.71951246142686   13.46370503576680   14.35787020440338
H        -4.90875844564746   12.58169588277846   11.66865498630946
H        -3.60820226870396   10.73829830473829   10.72544339191141
H        -3.82255628913186   14.59845733658413   14.61666131763835
H        -5.25437582599150   14.01141777224423   13.75648014484185
H        -4.16435710288016   15.15297868521679   12.97701014403013
H        -3.83727294816170    7.76529806114045    9.66279869026708
H        -6.00065773950150    7.05228441416330   10.58940858494704
H        -6.41884816690050    7.20051406492935   13.01649571045833
H        -4.65708691176314    8.06377585609243   14.51457139021652
H        -2.48450296867484    8.76492035430569   13.58779718375738
H        -0.76824956291417    7.09757867444942    7.57313612064444
H        -1.29209956332465    4.81999912749655    6.76484695331902
H        -2.12595360815618    3.11872727261264    8.34492403951975
H        -2.40627425427495    3.68571755310572   10.72866436039695
H        -1.88518357033214    5.95241988751382   11.53070876112315

