54
CSD_code = SEFHOA | q = 0 | S = 0 | Stoichiometry = C28H23IOW | MND = 10
W         6.26493688325611    8.47838544902166    5.10865061232037
I         3.76530061452580    8.31839117559094    3.87128544548035
O         7.01135209980019    5.54875874190528    4.40395269797841
C         6.57715784926579    6.59541030549651    4.64573632328437
C         8.29797406210790    9.01831665324644    4.20650399640340
C         7.29614974678665    9.32593447426684    3.23678265360507
C         6.53570105939633   10.42424576200709    3.73720151150323
C         7.02743733153381   10.76940216832871    5.00045626908215
C         8.10275054622963    9.89055806670313    5.31142205376194
C         6.71724417513203    7.41012875311310    6.79647440062001
C         8.84081170141539    6.17284847503211    6.87256722824690
C         9.69243707812790    5.28368180794245    7.49267636050909
C         9.32929830351540    4.68906747567822    8.69233050500527
C         8.10577027242525    4.99375895953421    9.27161785683298
C         7.24396725375861    5.87521905906325    8.65564320964411
C         7.58908769720339    6.47569117355538    7.43173589847687
C         5.33125356682765    7.63888235558641    7.03911027919631
C         4.47837051088099    5.29670728418264    6.81201740277283
C         3.50708518155858    4.34210906104000    7.03703182486996
C         2.34441508224534    4.67265607634685    7.71488839228273
C         2.16621717124490    5.96488037828881    8.17762146034020
C         3.13647195996292    6.92414998032943    7.95834794978149
C         4.30410593257512    6.60862810625620    7.25997310527830
C         5.00836221408487    9.03825264912099    6.94020998369361
C         6.88384534873257    9.84655446367747    8.43865555187609
C         7.48726544319374   10.86621321036074    9.14593341190076
C         6.95245733231304   12.15034463908648    9.16195741369558
C         5.77680637083411   12.37640104017206    8.45685521155541
C         5.16539992702846   11.36067912541529    7.74979122201613
C         5.71474984675102   10.07338913157951    7.70505342720430
C         7.63211556841813   13.25146688106885    9.91564187053785
H         9.15335235755852    8.37452635516712    4.04523575867105
H         7.26914245557605    8.95945094377664    2.21421059675468
H         5.77484576244512   10.95918349962233    3.18347536507419
H         6.73067551497411   11.62839763983120    5.58611458775709
H         8.77160625892358    9.99734877180818    6.15605053517837
H         8.00641480274263   12.88981483961815   10.87131000721750
H         6.95010554179436   14.07900424551026   10.09436274807311
H         8.48264915594531   13.62813465668905    9.34570794881811
H         3.94577123345189    9.27170029137420    6.82474679968933
H         9.12519989578618    6.64181071233266    5.94153165856716
H        10.64705890449897    5.05157481320653    7.04368547541552
H         9.99893270115279    3.99402065688140    9.17618815402845
H         7.82442319632789    4.53705307232088   10.20916663623938
H         6.29047862739491    6.11303905271385    9.10564496586483
H         5.37637909552345    5.02663514477996    6.27577916455967
H         3.65517969283843    3.33562158398989    6.67512720939949
H         1.58309837084490    3.92583070406769    7.88203791866936
H         1.26631661026291    6.22911441769552    8.71310894960099
H         2.99550789363191    7.92300278457861    8.34459389345242
H         7.31725300842282    8.85560360461405    8.46885162032696
H         8.38872935245265   10.66042551906884    9.70608326597963
H         5.32960684858662   13.36037234329856    8.46595620016559
H         4.24687458773581   11.56222146405763    7.21500501074128

