87
CSD_code = SEFLOF | q = 1 | S = 0 | Stoichiometry = C30H49CuN7(1+) | MND = 4
Cu        1.43201531408080    5.29298747494806    4.43443377223284
N         3.08888068187810    4.64006475141995    5.55451359226407
N         3.47121892388827    3.36266637060549    5.38284530408344
N         2.13854538652951    3.95863048907997    2.98833871334276
N         2.40143803241070    2.70141932366899    3.38743521864017
N         0.49987862212574    3.59764019856988    5.25178357031172
N         1.26939729976077    2.51382022947866    5.45254967904173
N         0.77309453199458    6.97532701048260    4.27435479602529
C         2.54766296174775    2.42473178680676    4.79427354570004
C         4.93014595063959    7.18010308521693    7.48111222499599
C         4.41759264409015    7.51670700354991    5.03475258465318
C         4.03888276918211    6.76280573832881    6.31472473101063
C         4.12091880552262    5.29591624852174    6.04977959212552
C         5.20477825366773    4.41423903555709    6.20416765921641
C         4.76643031653022    3.18521192493598    5.76512516741449
C         5.50055054832142    1.89157832746977    5.62591793696359
C         6.63053192597657    1.78898781060848    6.64920540381722
C         6.05412248643979    1.77700740679283    4.19941196479352
C         2.86227394790971    5.47108631519383   -0.10068449612053
C         0.39485897514302    5.03977699280722    0.18859563643321
C         1.74240449498574    5.18097442047531    0.89965038208879
C         2.04089104626959    3.94154478333205    1.67386348441690
C         2.24821114658870    2.63138899261454    1.20662262380624
C         2.47128674197624    1.85593387369833    2.32134162981648
C         2.67298675143402    0.38111287721424    2.44964033956649
C         3.28153011719261   -0.20290613399806    1.17581207502248
C         1.32606697640063   -0.28619299833291    2.75788183565673
C        -3.01731216493285    3.94574558104238    6.25358855409159
C        -1.26445996733006    5.52202428033485    7.14953554312252
C        -1.62157198967196    4.52532386632441    6.04098026810442
C        -0.57798345872864    3.45875423244065    5.99927351325205
C        -0.50414588352385    2.24500557117939    6.70477061844724
C         0.68860719569509    1.66118377503267    6.34199359571804
C         1.33319512321701    0.40037904160297    6.81836229712173
C         2.31047190779531    0.72987188013828    7.95445927446767
C         0.28579959003536   -0.60801777967674    7.28774444161386
C         0.34209111853548    8.04111187964544    4.30892251301214
C        -0.18859362981398    9.36218510666835    4.33549695002204
H         2.94229601446383    1.41073325236187    4.91805154698929
H         5.97842844537585    7.03192151562513    7.23541125859428
H         4.69552401319554    6.60251369461285    8.37191724977257
H         4.78065911114395    8.23308594854249    7.70458489037460
H         4.33280998874925    8.58850498815946    5.19376999757206
H         3.75606149530108    7.22693792119907    4.22045227068236
H         5.44280465663176    7.29008510126025    4.75125396834369
H         2.99281760742002    6.99100247908593    6.54973356102617
H         6.17378572691798    4.64898721111467    6.58945247104208
H         4.80774793236447    1.05943647934242    5.80398288026061
H         7.39083349134299    2.54023176614913    6.45702577469200
H         7.09736681371429    0.80971772215283    6.58660397876121
H         6.25032485954224    1.92699218847508    7.65833539516811
H         5.26428299535668    1.87547937495436    3.45693512997866
H         6.54217723928916    0.81543549404423    4.06414944238121
H         6.78550685676981    2.56138673859362    4.02224592195566
H         2.94390894424498    4.66690788110534   -0.82753018855986
H         3.81609341122727    5.57377715325572    0.41153036059709
H         2.65520282232232    6.39520560364104   -0.63363766342461
H         0.15493261846297    5.95784412005261   -0.34108642566240
H        -0.39530098221565    4.83665833907399    0.90784118567292
H         0.42689356057162    4.22609480791570   -0.53167547690183
H         1.67928305084335    6.00289062277177    1.62291179285759
H         2.23591998895404    2.30507022270331    0.18851617318945
H         3.36485657195996    0.17889765120049    3.27704842553391
H         2.59312994747609   -0.10345348538404    0.34178665790321
H         3.49172736015456   -1.25946740255416    1.31827221497264
H         4.21032573307705    0.30348062251388    0.92509253808937
H         0.86883973937010    0.13423302303810    3.65183571316331
H         1.46359869848233   -1.35406092352918    2.90576899263554
H         0.64144962976440   -0.13996639099059    1.92632517573426
H        -3.09609223013849    3.48343377224447    7.23405541405169
H        -3.24398497215831    3.19883242226387    5.49671318312468
H        -3.76110441921102    4.73562233978214    6.19096417804487
H        -1.99150225022569    6.32957457664069    7.17379770369141
H        -0.27612009616952    5.94130854795775    6.97114389304103
H        -1.26560396063278    5.02775035448939    8.11826771202357
H        -1.58266696643840    5.05217037135789    5.08054439141186
H        -1.23046273833067    1.85147982017207    7.38314193003368
H         1.89290653633013   -0.05545036126690    5.99177148897086
H         3.05148352822299    1.46356353184114    7.64222539600873
H         2.82596911179718   -0.17103150767074    8.27657977190400
H         1.76735018734356    1.13699914283157    8.80347504207393
H        -0.23738761170392   -0.23732933411395    8.16424352449381
H         0.76818168515656   -1.54538775285217    7.55134971623637
H        -0.44099985695463   -0.80206920368315    6.50287432269216
H        -1.12273450070844    9.39538544210784    3.77452940182551
H         0.52351964704179   10.05460717657775    3.88610214961664
H        -0.37863292945411    9.66204616705776    5.36623903108297

