82
CSD_code = SEFLEV | q = 0 | S = 0 | Stoichiometry = C28H46ClCuN6 | MND = 4
Cu       -0.10262955647658   -1.14473207857021   11.46278580050421
Cl        2.01967622160296   -1.28517860426893   11.09839845902857
N        -1.50648393637856   -2.31596710647649   12.53209144542033
N        -2.74561492453714   -2.24251975161782   12.01010382155180
N        -1.43551196089501   -1.45200861813453    9.81020318326278
N        -2.66275275121665   -0.95894029369000   10.04941305473610
N        -1.37176061007894    0.45960883905528   11.98688263520486
N        -2.65658227470512    0.09921310792689   12.15332427843533
C        -3.16902451839805   -1.01109371464584   11.39512818591019
C         0.88140729639869   -4.58976815520189   12.35791553032470
C        -0.23332328618589   -5.04856159924033   14.57642464047920
C        -0.01231116446506   -4.02300252185861   13.46553834744494
C        -1.30579398014394   -3.57755467508155   12.87026506442044
C        -2.44520206971388   -4.34009934739790   12.54972056299680
C        -3.34661228222795   -3.46660804820289   11.98784450763655
C        -4.70699784797305   -3.70032141358404   11.41501111111687
C        -4.60314002079312   -3.90596129669486    9.89880551482814
C        -5.37512852751517   -4.90726437079295   12.07241019129079
C         0.09721821056698   -3.17562380156889    7.77563240889139
C         0.44589398307419   -0.95336681751603    6.63665985642501
C         0.13954958929411   -1.65446897154492    7.95556207987068
C        -1.15223917496891   -1.19504006611919    8.54582970364928
C        -2.23154815823831   -0.50992498781092    7.95390186801135
C        -3.18056840958056   -0.35997734662991    8.93916881275979
C        -4.51257167222101    0.31736526466849    8.92747692984587
C        -5.09032823487525    0.36054908603126    7.51376786409189
C        -4.37977990406531    1.73566323290899    9.49547635536335
C         0.20035852411976    3.43640311772710   13.47600272581375
C         1.09220019931940    1.12177322767491   13.94556167995134
C         0.25254060239908    1.98684719940029   12.99958408302623
C        -1.11127083829438    1.39151559357280   12.88619691782391
C        -2.26322884170038    1.63627629050231   13.65791874597804
C        -3.23484783879386    0.78922887903004   13.17737431686799
C        -4.64421097983024    0.56302253616110   13.62015643144106
C        -5.19575060194882    1.79569787212944   14.33477235925897
C        -4.70961351227937   -0.66263195254653   14.53984122800834
H        -4.26600533663718   -0.96539875447636   11.37746136253936
H         1.81026701510342   -4.95974691660740   12.78408404602497
H         1.12301269804328   -3.80765858617551   11.64172605802417
H         0.38190458506864   -5.40662625977058   11.84011853842655
H        -0.64533887619736   -5.97002490764271   14.17153151534969
H        -0.91794986149024   -4.66229615701973   15.32883230589800
H         0.71286998874646   -5.28174395462438   15.05795635282222
H         0.47975949228685   -3.13544974372552   13.87586393179621
H        -2.58208486759129   -5.38816293233801   12.71385044213024
H        -5.33228923341119   -2.81853918871402   11.60828965911634
H        -4.13844618742115   -3.05012190917324    9.41495766123660
H        -5.59218432348072   -4.05310354679947    9.47095853435624
H        -3.99870091698769   -4.78415264229641    9.68599898839428
H        -4.83037417381894   -5.81729484104069   11.83793806418676
H        -6.39329302688262   -5.01453056171480   11.70606467406479
H        -5.40509989067365   -4.78809636319861   13.15280318070395
H        -0.68691328739023   -3.45823196969519    7.07384829239557
H        -0.09510027718618   -3.65430329730509    8.73230675665938
H         1.05148348124668   -3.53084298779881    7.39622914440731
H         1.43090467240490   -1.24842289791521    6.28458261199763
H         0.43824299195474    0.12643282252687    6.76548686985715
H        -0.28462555639014   -1.22292399532423    5.87544074538681
H         0.92757517206435   -1.42704208402399    8.68322965577886
H        -2.30032373140515   -0.17464417819620    6.94066586359788
H        -5.20620666199038   -0.25154281645435    9.56149677031591
H        -4.47180321566789    0.97950570646907    6.87010282837959
H        -6.09257336434965    0.78196221507831    7.53350866927128
H        -5.14212390459055   -0.63950481529171    7.09013948213940
H        -3.97713452801947    1.72047238257035   10.50577664299772
H        -5.35061552978935    2.22564750921315    9.51489280081324
H        -3.70820294465717    2.32104250044997    8.87239109310322
H        -0.17242515285684    3.49229676002135   14.49632918191394
H        -0.44682027570580    4.03133915671417   12.83488996362460
H         1.19765595246467    3.86813495505760   13.45470810962864
H         2.08532618370664    1.54880428098348   14.05697135098353
H         1.19313052970021    0.12060724303124   13.53055851306525
H         0.62351783396516    1.05530787533994   14.92594364533908
H         0.71318386396270    1.93921645831933   12.00772165480649
H        -2.36354235144629    2.34363898970510   14.45375571965684
H        -5.26902030306547    0.37448778813211   12.73682780416811
H        -4.65340439076506    1.97295845330423   15.25915622800355
H        -6.24519724379767    1.64689503531294   14.57734182273538
H        -5.10649168572990    2.67664318762558   13.70385049710771
H        -4.32522336612165   -1.55100745935064   14.04375482660278
H        -5.73700745648380   -0.85019686619286   14.84334713769518
H        -4.11162928695207   -0.48753139457246   15.43075930081567

