91
CSD_code = SEFMIA | q = 0 | S = 0 | Stoichiometry = C31H52ClCuN6 | MND = 4
Cu        6.25163165944450    4.15200059010517    6.94680059621128
Cl        8.45343679699223    4.15200271416241    6.78819197848137
N         4.78509020323867    4.15199608026004    5.37100379929320
N         3.50171735821264    4.15199738552269    5.76086976665821
N         4.96113553654859    2.69547803506998    7.85159955078885
N         3.64738931226477    2.96406805425272    7.81633912694767
C         3.16449351614055    4.15199932676302    7.15997422016988
C         6.88625332773729    2.90166821254808    3.63724035044923
C         5.78438203757904    4.15199498635754    1.76546878937979
C         6.08106786075742    4.15199626256065    3.26733023695244
C         4.80199355833384    4.15199710442097    4.05311090463111
C         3.47704882339012    4.15200045467958    3.57489413001386
C         2.66379054080711    4.15200045310797    4.68369939951621
C         1.16895808940739    4.15200290558277    4.73041464333394
C         0.62667706920244    2.89143240818811    4.05068810079855
C         7.14106827232533    0.70476077530207    7.39777253977502
C         6.33528662666597   -0.35955432431193    9.51892121616692
C         7.32153894657668    1.94370153810970    9.56262137029277
C         6.47158779708182    0.95872193853316    8.75250074461656
C         5.12022945118922    1.56846997715938    8.51693755945464
C         3.85938595930737    1.09359260256309    8.92751863246503
C         2.93403557070270    2.00242649496429    8.47053670022678
C         1.44787161538285    1.96693397259735    8.63405711063775
C         1.08665978335211    1.94015053274760   10.12163679854879
C         0.87445919685362    0.74448581626139    7.91149743380357
H         2.07313252515227    4.15199884243497    7.23564430770734
H         6.30529722074362    1.99860130239320    3.45792686184892
H         7.79592566319098    2.85687532672308    3.04425873399218
H         7.16425603722386    2.94051211805307    4.68699991405178
H         6.71946447871230    4.15199331362176    1.21074666541949
H         5.22045313709772    3.26614957437904    1.48011293862547
H         3.15699540629483    4.15200214201673    2.55434536463247
H         0.81890830953220    4.15200191103101    5.76806062505742
H        -0.45881628867832    2.86851509749182    4.11117002295918
H         0.91592849082925    2.87295729118709    3.00385672960633
H         1.02109412733749    1.99824176657451    4.53024586050588
H         6.52028748212877    0.06615899880984    6.77171604351115
H         7.30538778975343    1.64927751500621    6.88616332908512
H         8.10424423648452    0.22303271783353    7.54391731245941
H         5.87863684675644   -0.19789085255187   10.49331521507846
H         5.73410302436550   -1.07418951243654    8.96034274054720
H         7.32034077332137   -0.79274276934091    9.67399127930955
H         8.28902143711175    1.50202006171243    9.78624778792722
H         7.48508687578012    2.85009911591856    8.98573925845559
H         6.82925184816820    2.20315375994754   10.49832846531410
H         3.65246772201908    0.20405031752084    9.48412988416725
H         0.99396324152437    2.86188510581628    8.19571034088351
H         1.50592517882228    2.80438394391294   10.63203901311462
H         0.00648843409428    1.95244376004286   10.24657596071695
H         1.47897776281521    1.04241306799586   10.59052190055790
H        -0.20899242051800    0.72680529220436    8.00271149668716
H         1.13449055671918    0.76728879382721    6.85541766541321
H         1.27366554475562   -0.16950584343777    8.34203074876025
N         4.96113425146450    5.60852374570278    7.85159615022659
N         3.64738814443100    5.33993321212124    7.81633539970025
C         6.88625183066084    5.40232592297528    3.63723852748418
C         0.62668114155319    5.41257721107399    4.05069180187343
C         7.14106814397744    7.59924077767105    7.39777092124846
C         6.33528389060587    8.66355660105791    9.51891818098934
C         7.32153567774214    6.36030039843476    9.56261994014469
C         6.47158574126598    7.34528015966578    8.75249814055031
C         5.12022765901645    6.73553166019686    8.51693450433375
C         3.85938406422889    7.21040743705119    8.92751714396541
C         2.93403406591091    6.30157335802207    8.47053471961005
C         1.44787014181507    6.33706517925142    8.63405534792480
C         1.08665825362899    6.36384203695806   10.12163516032734
C         0.87445774327486    7.55951640995744    7.91150095032883
H         6.30529442541081    6.30539180762764    3.45792400512603
H         7.79592396296107    5.44711941000707    3.04425669600710
H         7.16425478223600    5.36348369314516    4.68699810962369
H         5.22045521051413    5.03784109657404    1.48011100276751
H        -0.45881207653839    5.43549825932351    4.11117456000809
H         0.91593182272617    5.43105411496928    3.00386025530943
H         1.02110166417735    6.30576528728984    4.53025150816462
H         6.52028886329825    8.23784331374836    6.77171376976726
H         7.30538750469665    6.65472401185156    6.88616167546330
H         8.10424440632895    8.08096784573922    7.54391719919029
H         5.87863469678101    8.50189312341757   10.49331242915965
H         5.73409942849678    9.37819103806077    8.96033973182238
H         7.32033769406565    9.09674597426163    9.67398765329765
H         8.28901773931828    6.80198171925114    9.78624819779601
H         7.48508452954659    5.45390292575009    8.98573787701055
H         6.82924696947555    6.10084802439813   10.49832607624913
H         3.65246547172733    8.09994907122837    9.48412930417929
H         0.99396163293609    5.44211613804359    8.19570448632490
H         1.50592359965398    5.49960642987522   10.63203371002383
H         0.00648691006490    6.35154821548407   10.24657426359758
H         1.47897621038476    7.26157746762768   10.59052416100070
H        -0.20899383177824    7.57719678403470    8.00271542361414
H         1.13448879365561    7.53671746668724    6.85542104553985
H         1.27366448926901    8.47350621527322    8.34203780423815

