83
CSD_code = SEFMEW | q = 1 | S = 0 | Stoichiometry = C29H46CuN6O(1+) | MND = 4
Cu       10.03543919499464    4.22237047123772    5.03001850008030
O        12.93493966649109    3.95087420878446    4.93583555836441
N         8.90049184519436    5.73614392157753    5.84421102713950
N         7.55869643876865    5.61640928181074    5.87219248018212
N         8.62679105008481    2.99478751097800    5.91281205906640
N         7.31779104299792    3.27544938125529    5.75452893782207
N         8.66810967466047    4.32145292730787    3.48959952008240
N         7.37109261825771    4.55440069138392    3.77384988501101
C         6.94385057325283    4.53018643633645    5.15003130573496
C        11.16946880696613    6.43650450781949    8.06031759354848
C        10.80715626183036    8.67289329219297    6.95402309586456
C        10.64713797350466    7.16113981964370    6.81429981263985
C         9.22316517473941    6.77463831462196    6.59299683604025
C         8.05188221579993    7.34294921412114    7.12167471221845
C         7.00340787107952    6.58483889309779    6.65072712151034
C         5.54180382347640    6.67873963639883    6.94353870131324
C         5.12799609748393    8.12565284553822    7.20899888738344
C         5.21547585373436    5.79385818580909    8.15399646588901
C        10.21122436942412   -0.08438326098546    5.96118543287146
C        10.10983701465091    0.85132097016688    8.30074492101648
C        10.02263430648719    1.17615224482929    6.80871042939322
C         8.71181415232330    1.81047616878759    6.48847364307533
C         7.41666987739973    1.30939346544251    6.70719512385520
C         6.54448213103636    2.26011379048337    6.22824418103512
C         5.05457752869063    2.23562943131064    6.12500734432639
C         4.65725108545819    1.67101339236433    4.75459245342985
C         4.44028452456048    1.40130577334519    7.24810476608496
C        10.64750462205220    5.57748975617280    1.03238558377339
C        10.02697784555295    3.23011437951239    0.35254096648856
C        10.12957500190301    4.21882643802555    1.51360194969983
C         8.80757769006825    4.39928703743696    2.17955851215727
C         7.56120307219988    4.69265316732381    1.59942114574098
C         6.66117860258790    4.78871701068378    2.63610092352035
C         5.21149908657647    5.14845687132012    2.62353218073427
C         5.06777872725011    6.66269694231790    2.82586241837280
C         4.55099860559287    4.71616644390702    1.31517876343126
C        11.80460559331926    4.05527006739858    4.96910877929629
H         5.85584438683785    4.63986795441947    5.19144516320512
H        12.21846810495772    6.67311457571349    8.21452791305030
H        11.06750500330029    5.35924268142212    7.94379203572846
H        10.61259401902519    6.74753680405618    8.94113385403543
H        10.31491815240633    9.03094997229520    7.85431089893950
H        10.38300159959593    9.18749058231038    6.09520815508174
H        11.86132173613080    8.92700990235198    7.02086585931823
H        11.21869830384771    6.81078602171632    5.94631324274623
H         7.98781686539321    8.19712978805933    7.76103226185369
H         4.97198242552792    6.31772055712756    6.07836182976227
H         4.05045276081077    8.18313028431073    7.33611504624319
H         5.41271803720182    8.76745443849562    6.37893738683774
H         5.59649320019520    8.49889977342808    8.11467984465754
H         5.72780487257236    6.16837280869399    9.03634067071756
H         5.52933487911134    4.76434823164748    7.99023775617907
H         4.14619195131813    5.80603594143705    8.34703164045457
H        11.18355832365721   -0.52448897144915    6.16391680866031
H        10.15339191455536    0.15474637346297    4.90166214304635
H         9.44540186082083   -0.81978473072982    6.19462608886785
H         9.96811318875984    1.74876651916858    8.89851106729141
H        11.08604741787955    0.43418159423769    8.53147297180167
H         9.35182186421881    0.12435194883518    8.58031775770700
H        10.80644330304470    1.89885675585516    6.55012848323975
H         7.16210232674178    0.37384458107683    7.15773414234968
H         4.66518750613971    3.25753943022110    6.21197570372162
H         4.98660669259889    0.63883732219351    4.66864412827431
H         5.10867103923544    2.24011288042918    3.94372664478665
H         3.57698666341835    1.69721078309131    4.63992852801875
H         4.72226029900868    0.35740328431129    7.14902547423037
H         3.35653232309411    1.46549052532112    7.20378047289009
H         4.76807409513797    1.76081792573180    8.22039660121304
H        10.73013787781068    6.27178183076507    1.86570599240507
H         9.97416731725172    6.00102093941384    0.29124049589321
H        11.62818258555140    5.46072848896381    0.57974710526335
H        11.01005385304996    3.06519949494850   -0.07930770354377
H         9.37324668380438    3.61579538880436   -0.42509923304031
H         9.63582488987615    2.27466012711352    0.69389116291120
H        10.82257074612164    3.82411573878130    2.26668923862261
H         7.35500422737157    4.81524739379786    0.55763264066308
H         4.70043773617213    4.63244162008932    3.44582074218820
H         4.01654120213319    6.93428017506932    2.87059802370315
H         5.52424705584818    7.19334865418094    1.99442386764215
H         5.55241959999452    6.98932467265614    3.74440273076358
H         4.70433578939900    3.65458723704743    1.13743733915848
H         4.95908880066502    5.27274308241431    0.47687106450488
H         3.48242649796954    4.90755898694819    1.36136393975862

