75
CSD_code = SEFNOI | q = 1 | S = 0 | Stoichiometry = C24H36CoN8P2S4(1+) | MND = 6
Co        6.19841868993135    5.38502667611877    6.16432462020829
S         4.53184674061406    6.52519257088948    5.07935399899165
S         5.28857930540229    6.76651220156138    7.79619550670837
S         7.90692511875893    4.07501185328924    7.04860664427204
S         6.92509261558483    4.08686949325270    4.38636578622720
P         7.66364172162146    7.01648197350320    5.54940160299693
P         4.83779214272678    3.80765634568412    7.03590251756634
N         5.36869686807024    9.50701127090753    3.66661722833725
N         7.51049492323234   11.90041879928865    7.17786839947528
N        11.14756554677129    4.68366170727558    8.04209054147451
N         7.37491257583125    5.71659618188587    9.69045744560378
N         1.11807550087612    5.82921071324924    4.62381845197528
N         5.21548902254652   -1.22476212049374    5.98596201899082
N         3.41690295707043    8.34037408890516    6.65538265669006
N         8.99903624794275    2.56251255927380    5.13892540403091
C         7.97986805590028    7.27363137988015    3.74227113377132
H         8.66128398412776    8.12561266588420    3.65408937904506
H         8.50867707250480    6.37959391988556    3.39600788793202
C         6.75268593785119    7.48607575703780    2.85139065732615
H         7.07263827502459    7.65922755275025    1.81951183237323
H         6.11207008071822    6.59848375331293    2.86432652154941
C         5.97058993451815    8.61285060790042    3.28440363691298
C         7.30783285207387    8.68557476199278    6.24667050380215
H         6.25798267333206    8.91948692909506    6.05002153278149
H         7.42362587765490    8.58149480177702    7.33224871866515
C         8.16520132386754    9.85098182247958    5.74243783849776
H         9.23554383389082    9.66451587929524    5.86102715171914
H         7.94805178918130   10.08066229443438    4.69616595142223
C         7.81742612621827   11.01236230536332    6.53053600592379
C         9.42188882882056    6.76691615017569    6.04841184880848
H         9.74656276092187    5.82164706419374    5.59831341531333
H        10.02314904870587    7.55624389804854    5.58816720670330
C         9.64275398498615    6.72745936146538    7.57247750070894
H        10.10303300343814    7.64768753829272    7.93655327813041
H         8.70436531411055    6.57791077260199    8.12312501943172
C        10.49845918666786    5.61103617522928    7.88361785805984
C         4.71677210792623    3.67537484349600    8.87853536892939
H         4.19949303772859    4.57819542739809    9.21906313769784
H         4.06726280544409    2.81944444827021    9.08664011737635
C         6.02329356459458    3.51404020690235    9.66450848814993
H         5.78904189108665    3.25510449111167   10.70204684464199
H         6.64989486506140    2.72009849580190    9.24748151577098
C         6.78738694588841    4.73538871492389    9.68442958815816
C         3.03531693862470    3.99189709162730    6.69723142074887
H         2.48627684911095    3.26621026954208    7.30334270820349
H         2.75444430736337    4.98720772412062    7.06025048435420
C         2.67724117072323    3.85482837924489    5.20593735290689
H         3.57100524425053    3.93502166819407    4.57539513315209
H         2.19243062615682    2.90047477334195    4.99066006542178
C         1.78939036583826    4.93070600535191    4.84053065724721
C         5.19518484770635    2.08073488167438    6.48319514118618
H         5.17811231457083    2.09517761959404    5.38761154189546
H         6.22405127632763    1.85616033237683    6.78472327830548
C         4.27159673186235    0.96554700467322    6.98604702406248
H         4.28217476145748    0.88164146079379    8.07563957700203
H         3.24167135092443    1.10307355005041    6.64924001087050
C         4.77032560270015   -0.27664556695788    6.43907969705626
C         4.27892815891073    7.35731282661385    6.54103789271756
C         2.64411043882343    8.76221830872487    5.50428463346960
H         3.30121407217514    9.19505259697930    4.74538054050219
H         1.91851557486407    9.50563750199351    5.81901338674593
H         2.11981287979071    7.91023754094442    5.06488263495605
C         3.25981023218127    9.09075764869123    7.87698363034991
H         3.91485583620460    8.69037110323304    8.64881954570192
H         2.22496804921013    9.03083580509620    8.21657316938918
H         3.51410299842559   10.13732293733284    7.70052202092811
C         8.07899374342278    3.44504112918296    5.46851212252485
C         9.96101145994222    2.07435584616888    6.10213850966874
H        10.11282037200675    2.80245272648428    6.89957783746295
H        10.91050013886309    1.90283494550661    5.59857679524427
H         9.62075200859901    1.13268643773406    6.53795239422199
C         9.07134423687705    1.97573861793790    3.82188512831699
H         9.00930052374639    0.88962126084599    3.90321344908926
H        10.01906026556295    2.23772823745068    3.34871555100296
H         8.25127148355512    2.33628300186420    3.20429390208888

