59
CSD_code = SEFTAB | q = -1 | S = 0 | Stoichiometry = C24H32CuSi2(1-) | MND = 4
Cu       14.08622398989159    6.58448866323991    7.77997431633045
Si       12.76260105559470    7.00731188729713   10.89390230291657
Si       17.31980268732936    6.62028833786852    6.69999932855480
C        13.06135119059973    5.98561596150308    9.33464302871876
C        12.86361758952015    4.65148255100728    9.30574379203299
C        13.46231907808395    3.93504430025196    8.18528435882935
C        14.29011391261073    4.72862642520890    7.36146314839551
C        14.85114483535946    4.12100045112127    6.24762651763491
H        15.44209200048758    4.70901759755753    5.55875579103423
C        14.68355907268688    2.76616249359341    5.98981866989129
H        15.15611692515163    2.31708136684027    5.12338987878256
C        13.91509684617527    1.99066834706381    6.83786906868168
H        13.78625471541013    0.93152971953813    6.64378051150108
C        13.29510153313117    2.57725428274985    7.92677311752639
H        12.67012617548810    1.96827101946069    8.56772004208738
C        15.55568534080002    7.29473303570634    6.69783801066460
C        15.25968515375968    8.52192684094844    6.22128342440850
C        13.96339227457437    9.06959041933258    6.60577604740930
C        13.26293856851133    8.29767371757444    7.55798005290096
C        12.00086992422472    8.73673130911263    7.93125538214566
H        11.40761729025617    8.14679662604226    8.61699113101621
C        11.47104036690149    9.93000387588145    7.45672068586104
H        10.49074159123607   10.25577970599505    7.78607346936733
C        12.19318677185523   10.70210107072359    6.56593513260096
H        11.78563769509500   11.63711185465887    6.19747616353034
C        13.43273894744231   10.26662536792018    6.13251242527323
H        13.97798994198314   10.86327591030352    5.41211469402976
C        12.10319528194704    3.85153025249001   10.33087493971339
H        11.65904316349666    4.49772045451144   11.08086198795598
H        12.76312778637892    3.13598371355739   10.82432033412034
H        11.30192895403001    3.29238288286600    9.84441407815113
C        13.63871077596927    6.21655749648049   12.41587151503090
H        13.23284063549909    5.24258033334122   12.66787089413469
H        13.55434924799536    6.84650990810567   13.29822678706264
H        14.69562252371341    6.08174927676834   12.20703742872590
C        10.91300576350669    7.22961455538207   11.40031293537846
H        10.24694440054181    6.95664942781778   10.58715080750725
H        10.69790009182111    8.26081605394476   11.66604882577151
H        10.65308039389011    6.60922500051501   12.25423875468963
C        13.54705619772207    8.74845897225773   10.80586842144336
H        14.49266969659060    8.70531680761070   10.27501007113159
H        13.73786949907349    9.15229800738082   11.79764058960816
H        12.91609743090756    9.45149753395085   10.27403486686873
C        16.15284879621809    9.37171619507787    5.35593147020320
H        17.07400785509674    8.85273780143817    5.11392176222230
H        16.39833022758432   10.30647818490101    5.86245454635890
H        15.64158445641280    9.61637152030843    4.42297886840445
C        18.01417405567582    5.98039355658057    5.01996504432683
H        17.65014486334299    4.98241296646482    4.79839589376152
H        19.10035795460669    5.93582484558032    5.03578752050115
H        17.72362367928217    6.62284573620963    4.19377282030697
C        18.57608553484882    7.96074854979844    7.28735602182810
H        18.95785804417513    8.56026358526464    6.46651736638271
H        19.43030962926880    7.51296065716369    7.78840029153064
H        18.10237449339190    8.63762721808120    7.99104370529502
C        17.54349689226445    5.20763998356490    7.96671940457735
H        17.11757802872763    5.49027824626685    8.92393219826783
H        18.59235134591941    4.96784564234119    8.12449041157103
H        17.03808682594552    4.30397149548826    7.64784894504514

