94
CSD_code = SEGLAS | q = 0 | S = 0 | Stoichiometry = C47H41CuOP2S2 | MND = 4
Cu        4.78778168141223    9.58224166739627   27.65520826121338
O         3.79986286641303   10.72347208263108   28.91996968939671
P         4.56852050340988    7.36817045628608   27.94568849683039
P         3.46272548388396   10.30425520437243   25.86050870410211
S         6.80387559600535   10.66371334482709   27.60982789594757
S         7.84704021191393   13.22994315893434   28.64317688972416
C         6.52132079639015   12.06242178444564   28.50382836890422
C         5.37966914865943   12.49923867759491   29.15556035131324
H         5.49448498760930   13.46090238004162   29.63691186117668
C         4.12318008464785   11.88945822684856   29.29031861202576
C         3.04798773659571   12.66954544061818   29.95651554766907
C         3.01460490199996   14.06209126026001   29.98232236275337
H         3.80184250973878   14.63569525374741   29.51810825114908
C         1.95673209495496   14.72572884208563   30.56998041719046
H         1.94346990932317   15.80686614505545   30.57599060118197
C         0.90078589892457   14.03031993447414   31.15014308296140
C         0.93078543082324   12.64254701885705   31.11838314934812
H         0.11924376139553   12.08009522849185   31.55920611940976
C         1.98337793868141   11.97403444817390   30.52657038518624
H         1.99535986726174   10.89409736402769   30.50124406303841
C        -0.23093622459747   14.77147758568047   31.79372286644152
H        -0.60691801918186   15.54883838205215   31.13024973141563
H         0.10961721678317   15.25419525940876   32.70998575025570
H        -1.04719817720750   14.09800453496005   32.04345954941692
C         9.20188518474824   12.44873360774414   27.73402170029977
H         9.43921649738216   11.49619763759972   28.19780934925188
H        10.04319025655935   13.13133218401841   27.79507252580790
H         8.89938007399016   12.29497223313053   26.70271744483525
C         5.91329376831062    6.45258499273385   28.77259018533073
C         5.79809223249448    5.10592537193361   29.10399160330716
H         4.89013573116764    4.56884164377262   28.86819164034925
C         6.84705492386995    4.46302954938768   29.73316302310129
H         6.76002684253915    3.41712213389815   29.99015983099525
C         8.00940180855756    5.15621702318736   30.03633015389265
H         8.82519946458287    4.64775735168988   30.52912721022917
C         8.12512202827848    6.49685189336675   29.70987279274086
H         9.03039455867172    7.03642793529459   29.94630261121163
C         7.07808904769148    7.14649907353396   29.07998162739476
H         7.15342672035996    8.19356118422838   28.81565581118842
C         4.34572462775358    6.44053013915054   26.40209819205542
C         5.44213036537047    5.87674835386459   25.75372081129250
H         6.40930893729460    5.88195288186913   26.23771130591365
C         5.29202717371222    5.31742805789318   24.49785549686762
H         6.14452821809277    4.87551834768314   24.00252402889073
C         4.05606214398398    5.33032696208222   23.87122257709885
H         3.94346586801635    4.89710483510065   22.88830439515906
C         2.96602048813896    5.90647813289653   24.50427523545613
H         2.00251914298396    5.92764890498392   24.01608729530683
C         3.10844252608412    6.46490054054128   25.76004388785674
H         2.26123580804019    6.92168176677078   26.25156213012313
C         3.14139167495180    6.89361143836783   28.97208808228049
C         2.84977451206287    7.75912144001252   30.02339751626043
H         3.45773043133808    8.64575731653155   30.15150538166728
C         1.78979331884722    7.49646359144418   30.86997867500729
H         1.56531145921098    8.17103191185339   31.68390357256782
C         1.01138674930914    6.36746646778711   30.66956039321456
H         0.17769459754898    6.16162810569795   31.32519013828318
C         1.29985975820256    5.50268396389762   29.62658511237422
H         0.69256242413014    4.62222201010604   29.47233603266102
C         2.36254373157281    5.75855374242874   28.77837837882866
H         2.57705269846352    5.08103576612038   27.96356873522128
C         1.79951102170892    9.58624112593567   26.01068917852733
C         1.34281196837064    9.37586884175181   27.31160164430685
H         1.95478595238857    9.70915758615669   28.13866800757786
C         0.13422893768769    8.74466083107619   27.53282684904873
H        -0.21026647080591    8.57771061371879   28.54330947979076
C        -0.62459516964222    8.31084940914253   26.45637682604093
H        -1.56580857417275    7.80843276006319   26.62591856650152
C        -0.17344458316980    8.51689908160753   25.16266118429795
H        -0.76641840032501    8.17833136498183   24.32488589152806
C         1.03668316554921    9.14871856400044   24.93395989673613
H         1.39087462855228    9.29413377609207   23.92332403715799
C         3.76180812438743   10.22625612495278   24.06276803887809
C         3.31076642827821   11.18358417508254   23.16013379766858
H         2.75733043307305   12.04161357168877   23.51667516364065
C         3.57034255136334   11.03015596546953   21.81046053577059
H         3.21838432081481   11.77295967714792   21.10891657458114
C         4.27551436038951    9.92712932179615   21.35476743750664
H         4.47211831385879    9.81298144593235   20.29870861981474
C         4.73398826796810    8.97648378852511   22.25233884053646
H         5.29027109452799    8.11983376525986   21.90064392482773
C         4.48486084839238    9.12953581247631   23.60340664072922
H         4.84960449064601    8.40343536812654   24.31839479756543
C         3.18527214101523   12.08028420832853   26.12805241694371
C         4.28946814604281   12.90522338543194   25.91656124368001
H         5.20779722329920   12.47037254169527   25.54083483759073
C         4.21261332661203   14.25535287601098   26.19328727681118
H         5.07278126501169   14.88926865395256   26.03370041769399
C         3.03454172563462   14.79101511772745   26.69091582081177
H         2.97296357020254   15.84646594078916   26.91267519015233
C         1.93983120573101   13.97309005955053   26.91369416292965
H         1.02604568084504   14.38927469083662   27.31283131221733
C         2.01141470167577   12.61864483816588   26.63994389368803
H         1.15882730397761   11.98153254269481   26.82870160212627

