78
CSD_code = SEGMEX | q = 1 | S = 0 | Stoichiometry = C34H35N6P2Pt(1+) | MND = 4
Pt        4.01722700849058    6.05486530474615   11.09813281268532
P         6.27910700142793    5.57942239270707   11.08913560574054
P         4.12260385523109    7.24492819690385   13.05980194897673
N         3.76194284772452    4.99734253887452    9.35961764971364
N         4.72608191000524    3.33020579985544    7.97617915516159
N         4.41000441935345    3.79129689115682    5.61195189668738
N         2.11540259361293    6.49014893940670    8.49633994808480
N         2.09327396350008    6.62398484995793   10.84456985573020
H         1.50257290310102    6.92848182590054   11.61372242268328
C         4.46973855618364    3.88142687947398    9.12789923500465
H         4.85180852458784    3.35239676881092    9.99605337916450
C         4.26373677423203    4.03911170681849    6.93586221533925
C         3.46788491513990    5.19469980388018    7.03681192604534
C         3.10930203183899    5.63513717276361    8.33316478164857
N         3.15227853125414    5.63130738981886    5.78434758652357
C         3.72603781407704    4.79180657652824    4.97698086920022
H         3.67679458356112    4.85853375359153    3.90805078145754
C         5.14024593217751    2.70306390423302    5.02449529383789
H         5.57639733406914    2.11768336665462    5.83175626661734
H         5.93136061149933    3.08151789761078    4.37568132865962
H         4.47265049754331    2.07157994570837    4.43635517961633
C         1.56853656599227    6.80405900850081    9.65359721563434
C         0.20541109690756    7.42546224405644    9.55217102054701
H         0.02750509941205    7.72578682744671    8.52494290266765
H         0.11905683500717    8.28480345023229   10.21460336852794
H        -0.54884314552043    6.69297174927189    9.83721912849758
C         6.66796275925396    4.15201484178619   12.13303530793986
C         5.57910560161224    3.48451643914101   12.69051545428852
H         4.57305331425852    3.84992133960661   12.47652817457375
C         5.77556059759699    2.38226276946739   13.50061618275420
H         4.93070607329251    1.86451241530945   13.92854679966500
C         7.06452356539173    1.94207777731958   13.75926969019470
H         7.22269904645580    1.08013703642146   14.38860637654813
C         8.15159029059640    2.60690940055688   13.21362547043032
H         9.15324642304756    2.26208524694928   13.42021424972108
C         7.95986380353665    3.71184568183675   12.40284882698253
H         8.81176849931468    4.22654161966395   11.98225292031662
C         6.90115214598110    5.25389735473533    9.41085848390546
C         7.63900914262144    4.13652406317157    9.04520676278838
H         7.89129880806978    3.38538063671905    9.77940131891315
C         8.02636619249467    3.97641713908117    7.72607978544503
H         8.59657955620294    3.10600947085940    7.43980157650190
C         7.67520381880723    4.91913730738258    6.77456505279133
H         7.97478879918652    4.78393453366467    5.74643110652634
C         6.93487892489227    6.03448382593194    7.13592921273686
H         6.64906585996753    6.76399229384161    6.39306353290804
C         6.55026818961919    6.20187723929430    8.45157011576664
H         5.95317074557377    7.06016598904310    8.74332585056626
C         7.47728199780804    6.87526722568620   11.59511572990137
H         7.35395357130426    7.74106441166500   10.94506389179865
H         8.49098097069181    6.49203908567484   11.48092136725653
H         7.31602563803071    7.18459501655825   12.62570239250612
C         4.90971097014106    8.83935355809709   12.71509909287768
C         5.48350668729439    9.65860969763140   13.68146172731567
H         5.49283420765019    9.35808635953348   14.71885483059447
C         6.04020101478261   10.87033748129261   13.31026718548280
H         6.48499769135438   11.50659123025448   14.06005503375524
C         6.02404717282938   11.27068415136936   11.98345978558990
H         6.45774035266633   12.21788772490081   11.70276659169708
C         5.45027348839907   10.45879470935775   11.01671711231443
H         5.43490684598550   10.77368531319181    9.98441704030080
C         4.89672289431461    9.24621202042655   11.38190273610481
H         4.43882967655142    8.59536528295154   10.63574541914727
C         2.51309542122624    7.65378883846030   13.80067561591980
C         1.67949939862511    6.58201251153813   14.11960666030795
H         2.00776593041781    5.57184379160895   13.90273031970859
C         0.44383273402680    6.81066929315707   14.69374131945744
H        -0.19844859787318    5.98006694491116   14.94361340627307
C         0.03032705779785    8.11097072945398   14.94417411414524
H        -0.93420203357083    8.29118434734481   15.39264701047379
C         0.84951349132151    9.17777261764613   14.61376685979494
H         0.52279361355883   10.18870449111975   14.80323720574129
C         2.08990885014453    8.95528354536721   14.03860340319748
H         2.72515109932962    9.78903361575056   13.77636502835363
C         4.97863030738671    6.51864300649601   14.50805906460150
H         4.45284823568351    5.60955985991571   14.79792536700565
H         4.95244352135397    7.21707154433588   15.34350445971027
H         6.00834657252305    6.26245198756279   14.26626420190313

