76
CSD_code = SEGMOH | q = 1 | S = 0 | Stoichiometry = C33H35N4OP2Pt(1+) | MND = 4
Pt        2.71552034275969   15.88437322862075    5.73737964143831
N         4.15333042380268   13.81294164667458    2.38446790174897
N         3.99864447380588   17.46111075259416    5.89862976575915
H         4.09132009862133   17.95933411575301    6.78070766481681
N         3.72950950447081   15.46681064516897    4.00026509800174
N         4.66544290231799   17.61899672298558    3.64338899308399
O         3.25687655110796   13.30469932502477    4.40304328423608
C         4.12777524287784   12.42303746662378    1.98629106275562
H         3.74422364013271   11.84142126542578    2.82231280096507
H         5.13420892660732   12.08596091899566    1.73693971579222
H         3.47501737825615   12.29225378872047    1.12275922478515
C         3.69287197180778   14.16263445617606    3.63756347186263
C         4.58720179201093   18.05647085647271    4.89660939914352
C         4.33548350667987   16.40987072255612    3.24050887956743
C         4.70988773235944   16.05222474080155    1.90552061566621
H         5.10357329261244   16.81853946416499    1.26365804834936
C         4.60198649522101   14.76322785683335    1.52626635001896
H         4.88823565219629   14.41586046230554    0.54493229414988
C         5.29099776349135   19.36096726541609    5.13649785921565
H         5.60700845640363   19.78201974602829    4.18790505616187
H         6.16875430419987   19.19450141186223    5.75978916691614
H         4.63495079763556   20.06100888751941    5.65098577832726
P         1.11539529698593   14.29445591717055    5.26771684289154
P         1.79227467801072   16.42283041402551    7.76508075724241
C        -0.58688718794392   14.93636207432436    5.60145014721657
H        -0.72248035632670   15.20122327216232    6.64770143628682
H        -1.32697313801056   14.18809644043983    5.32071542613119
H        -0.75289930553395   15.82671583469061    4.99592796032390
C         1.16861633826164   15.15630793715719    8.93322657882653
H         0.37071132114015   14.56344505987941    8.49175651319514
H         0.81414270982856   15.64339376042018    9.84103879933990
H         1.99331712423840   14.49316363983381    9.19151092048387
C         0.84600298282921   13.91202639995464    3.51001219693703
C         0.85267507294746   14.99666714646085    2.63818420791377
H         0.99362564960869   15.99779493846460    3.03384641049447
C         0.69511020702677   14.79831015115966    1.27906373878087
H         0.70651939656111   15.64111864043727    0.60422744000529
C         0.52295485863319   13.51382854469488    0.78683251915118
H         0.39708689155507   13.35622651578789   -0.27362323149050
C         0.51494435769926   12.43299203047718    1.65384968808909
H         0.38313628075877   11.43303708280455    1.26817409563963
C         0.68400536876133   12.62647241960736    3.01456999541221
H         0.71253912237181   11.78316855967360    3.68816104904034
C         1.17641637217915   12.78784165650504    6.26333869565683
C         2.30227670296792   12.61369062817931    7.06120888034211
H         3.09376468633915   13.35544234985304    7.00373544730323
C         2.41130190063349   11.50654892351423    7.88018716248078
H         3.28748497820308   11.36823932518855    8.49586632729095
C         1.39256957689974   10.56618038482512    7.90456904599920
H         1.47648336651837    9.69640242368374    8.53801303574118
C         0.26690155232280   10.73885974534817    7.11561365889406
H        -0.52435881414590   10.00459771563585    7.13676964541941
C         0.15123782103406   11.84999260948240    6.29795052766637
H        -0.73251185807018   11.97934172683891    5.68942784508865
C         0.45645150080671   17.62548539069603    7.53131197712312
C        -0.46306470174300   17.97314329412680    8.51557012513485
H        -0.42554142015801   17.50790103808976    9.48960086162298
C        -1.43233093847962   18.92360557463953    8.24540979560048
H        -2.14480715391225   19.19313609723374    9.00997296940042
C        -1.49002487342621   19.52976943336897    7.00062464598425
H        -2.24789698144380   20.27028973312702    6.79736807988531
C        -0.57736561971629   19.18538285778817    6.01530137383158
H        -0.62450840466564   19.65700322254659    5.04549626831564
C         0.39110640151494   18.23591818648912    6.28022310549120
H         1.11323627902318   17.94805777250961    5.51603934698542
C         3.01093939470071   17.24030814886689    8.84334523015944
C         2.79396984322700   18.44971131321176    9.49025492547120
H         1.86262079812115   18.98034874402206    9.35291898055994
C         3.78125615477247   18.97449888544617   10.30875760243548
H         3.61274758599151   19.91314324838920   10.81406982945801
C         4.97932224282173   18.30087537435103   10.47926980568856
H         5.74286645714866   18.71499046921850   11.11928711724568
C         5.20351921847815   17.09844217695936    9.82423268944200
H         6.14105208845863   16.57917423553197    9.95166775765248
C         4.22373637820094   16.57128859575964    9.00567655765665
H         4.38861054665521   15.64248619220470    8.46907511833937

