47
CSD_code = SEGSED | q = 1 | S = 0 | Stoichiometry = C24H12Cl2CoN4O4(1+) | MND = 6
Co       -5.66838036280279   11.30124374317155   16.97455881143222
Cl       -7.03003418266363   10.85359867384304   18.60579682087063
Cl       -4.12729580303400   10.00443951335986   17.78714544728323
O        -6.92969038516650   17.02189008050333   19.34028349942630
O        -9.00047130729288   16.65786254106275   17.55521054857656
O        -2.64625368722395    9.21549523066329   11.81389139919932
O        -4.55745715769912    7.27231852200669   12.23777548141019
N        -5.15770865241284   12.80302483688447   18.03434537294072
N        -7.07393496816716   12.49565716650100   16.28915292783438
N        -6.17438966175444    9.77389609241462   15.94893509800159
N        -4.42219392349829   11.65402280360414   15.49324830890077
C        -4.16870844577318   12.89598705345714   18.91936326360738
H        -3.47713878584002   12.06446439871095   18.95918528309166
C        -4.02971043618217   13.98317987211434   19.77230848794954
H        -3.21552918762207   14.00154812814163   20.47881408742001
C        -4.94635524627510   15.01847980448404   19.71157521750047
H        -4.88835292491459   15.87866332577709   20.36210844888329
C        -5.98177103566954   14.93528087407437   18.78096618366328
C        -6.99281504002846   16.02179019962759   18.67834374345635
C        -8.14192242039052   15.82618572574389   17.66984147895374
C        -8.12825012053034   14.58158695196473   16.85326779977724
C        -9.14195885782624   14.32858398084023   15.93157608606134
H        -9.94147481141811   15.04514464140117   15.81415371067911
C        -9.08933144748041   13.15554157021730   15.19683615133177
H        -9.85289281271323   12.91969138290249   14.47327350501028
C        -8.04054791802282   12.27109359598094   15.40501116904140
H        -7.98649501412406   11.34988800198854   14.84200712496497
C        -7.11554142857215   13.63130963823892   17.00126408226390
C        -6.05059074829300   13.80463865976954   17.96477519413086
C        -7.07614191388404    8.84018833098527   16.24054636574735
H        -7.70631303631387    9.02968737398796   17.09977773954282
C        -7.19952010611780    7.66664366438575   15.50805875543483
H        -7.93985578655426    6.93768742779199   15.79604578245782
C        -6.36073976180915    7.44515334918407   14.42954348291009
H        -6.40870860917652    6.54298162357616   13.83771486848729
C        -5.41874837370273    8.42234778790095   14.10889551964456
C        -4.49443264670813    8.23057560499951   12.95904941735242
C        -3.43832750254260    9.32523498101993   12.70974151466105
C        -3.45492189425146   10.50737571919669   13.61435522757231
C        -2.52427094263957   11.53218838113406   13.45688656016058
H        -1.78863798280042   11.46263224494197   12.66917216366426
C        -2.57392352002221   12.60933004869156   14.32635181975672
H        -1.87325482615361   13.42412640352737   14.24057090311572
C        -3.53628665751204   12.63052939762135   15.32579207287203
H        -3.58587926799863   13.46188163735994   16.01495426259455
C        -4.38431952200951   10.61049394469054   14.65170616035932
C        -5.35832087641266    9.57043506955601   14.90102265000439

