23
CSD_code = SEGXAG | q = -1 | S = 0 | Stoichiometry = C7H8Cl3IrNO3(1-) | MND = 6
Ir        7.65805283843531    1.12050372778580    3.12013357115868
Cl        9.00134185309168    2.91552908788195    2.36025294010452
Cl        6.23191888874300   -0.56679635903776    3.87780620727943
Cl        9.48794041789567   -0.28748427183588    3.26384304953161
O         6.02335890175221    2.41994280642849    3.00636958402291
O         4.47399054929098    3.04437252456250    1.53903237142275
N         7.12619530118413    0.70000307024030    1.31785591800258
C         7.70193595544966   -0.17876027503099    0.49348920917181
H         8.56253211381659   -0.70761160470312    0.88193239936336
C         7.22753877509381   -0.40184125960166   -0.78452267603441
H         7.72584398021287   -1.12232565378240   -1.41436747637193
C         6.11957664233279    0.30164934256681   -1.23658041199211
H         5.73087817463367    0.14320962342120   -2.23181711848613
C         5.52769741592201    1.21012796049830   -0.37708475230261
H         4.66424239050821    1.79914753345239   -0.64597558639537
C         6.05139279345794    1.38647637822868    0.89153041712309
C         5.43854848160257    2.38156973238271    1.88457247922017
O         8.02220954654050    1.85898398293523    5.19528077052497
H         7.51165002843109    2.67992232913643    5.11862260752888
C         9.34398347871284    2.17896888472640    5.60826932344966
H         9.90195254284870    1.24343256647497    5.63021701375920
H         9.31628719112241    2.61981542818843    6.61017646511918
H         9.82643173892009    2.86296444507742    4.90566369479636

