75
CSD_code = SEGYIN | q = 1 | S = 0 | Stoichiometry = C30H36AgN8(1+) | MND = 2
Ag       -8.52012341433132   10.44546194999289   11.63853631630680
C        -9.83670861678525   11.58719039073401   12.93218235961744
N       -10.33811646385544   12.81939651458061   12.68202587136234
N       -10.32124735245109   11.18915774846585   14.13194081673846
C       -11.14498135968943   13.21929530113971   13.71320891420205
C       -11.13406751671081   12.15713599660974   14.65767709962926
N       -11.81825117867873   14.32654028739787   13.87190411372291
N       -11.79696724336890   12.17698660571437   15.78221706427275
C       -12.51788519263435   14.38377600532083   15.02662141970935
C       -12.50772191421016   13.30889166381588   15.98137198211584
C       -13.26336884949195   13.43687611147029   17.16467646981425
H       -13.24134034498026   12.61851824522665   17.86669457021369
C       -13.99128484841386   14.56924254306198   17.39396012542316
H       -14.56818193801992   14.66624307221121   18.30078283093018
C       -13.99997442100902   15.62259446381455   16.45971732430155
H       -14.58441303894131   16.50541544589997   16.66852172336532
C       -13.28195391834610   15.53629647505038   15.30139121070871
H       -13.27528535070068   16.33022007803794   14.57158252952580
C       -10.09129217575236   13.64039091845713   11.50684339649603
H       -10.65852691207855   14.56217496510715   11.67766981064385
C       -10.61925107870199   12.94573900309519   10.25499436316463
H       -11.68441006902620   12.74953832402622   10.34881113347761
H       -10.10124075080903   11.99253953767881   10.09808159118382
H       -10.46038734351069   13.57750358434207    9.38633494377216
C        -8.60660524511402   13.97321582543408   11.39296925199936
H        -8.26160191797518   14.48709343852428   12.28670200393408
H        -8.43722806827378   14.61936467550802   10.53690480988316
H        -8.01627604555317   13.05820729227003   11.26690598177150
C       -10.04871282721872    9.93167778366558   14.81045112215741
H       -10.61076070272796    9.98569264394129   15.74952288960658
C        -8.55938903581386    9.80734429472477   15.11833261957573
H        -8.22649446996747   10.64111562358524   15.73139351957973
H        -7.97447859202168    9.80118175818439   14.19137151107460
H        -8.36895341331100    8.88494737653289   15.65857446219676
C       -10.56179059323919    8.75846426505059   13.98056806840704
H       -11.63075734630653    8.85353944123291   13.80698257895270
H       -10.37960985207853    7.82597782640288   14.50620410785577
H       -10.05260270154046    8.72259180505262   13.01043497754386
C        -7.24125464919109    9.28543492005415   10.34233584111308
N        -6.79333340093107    9.65885311533626    9.12342728765470
N        -6.77658755594065    8.04148145150544   10.59287552811008
C        -6.03766663770942    8.65499718229604    8.57636175230110
C        -6.02691465404906    7.60137220679691    9.53357050296764
N        -5.42378138063199    8.59099413178829    7.42455877033607
N        -5.40207210183895    6.46790577686045    9.35355197211429
C        -4.76724811721222    7.43179606307546    7.20642901492533
C        -4.75622979935948    6.36889568155075    8.17229752215861
C        -4.05135631727837    5.18333760137036    7.87924519003521
H        -4.05528253004451    4.39765279484406    8.61812600430950
C        -3.39196608474888    5.05533508228562    6.69044883148481
H        -2.85377363963674    4.14724893184609    6.46630741398096
C        -3.40334978262006    6.09719296278051    5.74314474798488
H        -2.87327267624401    5.96665413893503    4.81227618522215
C        -4.07348385226133    7.26080948150367    5.99081688301285
H        -4.09410028370279    8.07106523062000    5.27927153315146
C        -7.06384252077478   10.92839859599143    8.47204068058582
H        -7.68152695484527   11.50813362050784    9.17705319412790
C        -7.84131377318706   10.68876654682404    7.18222014250566
H        -8.76703963799665   10.15349312435240    7.38479336099333
H        -7.23886182179750   10.10520347102625    6.49113346551576
H        -8.08459765147589   11.63905054671421    6.71659792168612
C        -5.75359660677954   11.66315323348480    8.21083238645252
H        -5.20563426865179   11.81422809714566    9.13878054572873
H        -5.95755067758749   12.63273598317592    7.76654770838317
H        -5.13751123102620   11.08711027450894    7.52554408287926
C        -7.02830849098749    7.26754953696026   11.79575470162680
H        -7.64073039838189    7.90937776139578   12.44946827014514
C        -7.80487460174648    6.00412047480355   11.44025535919528
H        -8.73701575012494    6.25447320186235   10.93727596521608
H        -8.03644383831223    5.44741815209139   12.34329282683946
H        -7.20722632642226    5.37518334447689   10.78575514632116
C        -5.70830066463788    6.94119578711093   12.48541839692439
H        -5.16259306506156    7.85230666851130   12.72241568020709
H        -5.09616696888292    6.32039914498989   11.83669238822030
H        -5.89884918428275    6.40103639925197   13.40791691035322

