31
CSD_code = SEHCEO | q = 0 | S = 0 | Stoichiometry = C12H8Cl4N2O4Pt | MND = 6
Pt        3.09120605832072   10.19637816660628    1.32267801044679
Cl        5.43114074954188   10.37582247172138    0.92293643572847
Cl        3.20118816262068   11.58356321004820    3.13663251381093
Cl        0.78078153013046    9.76045008396064    1.68049889174262
Cl        2.63733603419329   12.02888649915827    0.03306080397175
C         3.69061235679256    8.37261853352726    3.66427863848859
C         3.94822168739831    7.15826257413993    4.29604035061110
C         3.99174870252807    6.00221339624410    3.52078849093275
C         3.78066828011599    6.10198375933548    2.15831058042429
C         3.53005533524439    7.35089262963320    1.58797700601276
C         4.16549572419350    7.14269491330170    5.77258475119406
C         3.29431582627950    7.55922842489891    0.15496686582735
C         3.32812166999837    6.53512319544243   -0.79261532140908
C         3.09175447684512    6.82632537408529   -2.12309591547308
C         2.82190866015690    8.14310859398281   -2.48727610515461
C         2.80565981894508    9.11765864505287   -1.49223195300843
C         2.55248745183221    8.54582294433913   -3.89897906110174
N         3.49182147372860    8.44921111127606    2.36315885989381
N         3.03585898888469    8.82221715718244   -0.22809718742151
O         4.12823357852368    8.11792192784452    6.46825137882352
O         4.40812349466501    5.91329594844982    6.23671852505384
O         2.29747943360838    9.66553884162268   -4.24211202243036
O         2.62671487507495    7.51322752302539   -4.74396261656196
H         3.64625649167511    9.29830176037312    4.23062081193776
H         4.18751547803172    5.04782924423411    3.98405130056356
H         3.80945659126982    5.21518906993807    1.54762959232079
H         4.54473181135852    5.93930405944805    7.19758092873720
H         3.53945567194503    5.52092222501922   -0.49783249471507
H         3.11421606773274    6.05176471433527   -2.87365265270122
H         2.60293948187324   10.15734265996762   -1.73213858298085
H         2.44809403649160    7.80960034180564   -5.65107082356370

