55
CSD_code = SEHGUH | q = 0 | S = 0 | Stoichiometry = C22H30CrO2 | MND = 10
Cr        9.54853086512188    4.49686216934626    4.28841696433557
C        10.79821430395559    5.83575977813896    3.94226885018480
O        11.55472620189072    6.63944979882863    4.39964193431532
C         8.77576658810892    6.12004654968025    4.36269013313428
O         8.33272249323974    7.17826949187383    4.52255261940184
C        10.82186093398571    5.36394425890537    2.39035035568473
C         9.76079204093198    4.30124437954372    2.23327171902612
C         8.56427277577329    5.02157197685142    1.99940806615553
C         8.87393659604396    6.39924235152114    1.69326023011421
C        10.21564085009188    6.60265925669966    1.82289253601203
C        12.25557208885203    5.02031305517735    2.04075723963392
C        10.05946440296902    2.96753772363058    1.60210211463369
C         7.22656034126289    4.40965972804649    1.71729455584555
C         7.83193276736112    7.39446203514916    1.30366761533788
C        10.99466635403719    7.86266819715510    1.69098195070510
C         9.50933503770604    4.12651246774734    6.47595358985336
C        10.76432283952297    3.67165284737316    6.00262232874258
C        10.53701938743360    2.58137945584126    5.11417555843260
C         9.14708845868690    2.38748766566382    5.00854852024732
C         8.49766358979241    3.36040182373469    5.83018794467318
C         9.31335173762551    5.13773550800677    7.56135126198050
C        12.09265415061158    4.13393941454998    6.51240331449956
C        11.61841467788848    1.69462559323687    4.57767734705587
C         8.43984270492484    1.25164643220723    4.33340932513000
C         7.03838684184214    3.36430228367479    6.17341248683212
H        12.90872090336299    5.85113564225640    2.29906326844788
H        12.34331662746008    4.81833806693748    0.97398072038882
H        12.58950639298021    4.14367547157200    2.59296469636301
H         9.19693833710149    2.30738448830955    1.66265685530625
H        10.91189777442674    2.48049305852900    2.06712724697235
H        10.29404958546247    3.10838196062216    0.54361786211398
H         6.43249710473354    5.00325764323835    2.16551173304734
H         7.16792904005216    3.39786630893458    2.11210206915402
H         7.04920349585008    4.36868770203344    0.64041707960289
H         7.15534059254605    6.97342660808688    0.56194814212524
H         8.28549573422247    8.29087359106423    0.89150903129334
H         7.24689775935504    7.67711764738139    2.17870938320935
H        11.74856272422597    7.77371901752453    0.90765981808625
H        11.50943885529165    8.06934525524994    2.63156152847719
H        10.34728631342678    8.70355518159798    1.46109032728363
H        10.07696335564790    5.91028947770703    7.50291027541145
H         9.38215828477101    4.66009765483600    8.54116814196848
H         8.33889397817695    5.61370217007202    7.48084242293068
H        12.18232287732900    5.21618704097566    6.42631382928096
H        12.90779726064838    3.67944961774891    5.95474122667868
H        12.20731837103568    3.86864095922066    7.56480199797696
H        11.23125885083865    0.98068206967945    3.85396163883688
H        12.06684844315118    1.12694678039704    5.39579184706002
H        12.41507322447290    2.27099666953628    4.10593606819205
H         9.07712799834061    0.75549757518936    3.60453580200445
H         7.53631352994284    1.59206186132051    3.82702935925833
H         8.13943988693275    0.50861685401211    5.07565384620221
H         6.71669394495652    4.36013108865777    6.47114623920617
H         6.83768718332986    2.68046477895403    7.00137294386400
H         6.43418254026707    3.05100351577029    5.32367603728950

