64
CSD_code = SEHQIF | q = 0 | S = 0 | Stoichiometry = C19H36B7NRu | MND = 10
Ru        3.29646918358784    2.96810412730184    1.68151387178399
B         6.85535124426670    3.00237043511757    1.99536918096239
B         6.57385666584051    1.75445202765194    0.75621350185716
B         5.41259893579487    1.98062850142482    2.08668748154935
B         5.32250316653480    3.83163763027546    2.39161110246882
B         6.49601175255915    4.56018788423914    1.26681176809840
B         7.06971127748871    3.30490620306358    0.20369024289903
B         5.58393879750454    2.57383039674096   -0.51441961197624
C         4.83352959107698    1.73016957121951    0.61589071955384
C         4.75683921621051    4.53901583519211    1.06294336431220
C         5.58718855434660    4.16367978670344   -0.13297903731275
C         2.82342247316774    3.21160137601223   -0.11256868836223
N         2.37310834413632    3.38193676903993   -1.18310461096263
C         2.09809568794907    3.36995136597439   -2.56801556676944
C         0.63486702046641    3.77824218982469   -2.76711836948121
C         3.03749893726851    4.37044153556764   -3.24906261556866
C         2.34499426115230    1.95420120522795   -3.09943774599591
C         4.07689842806733    5.89608799858868    0.99844458027986
C         1.27807249732715    3.52701899444229    2.39536759110055
C         1.31703892924368    2.11015756361451    2.11022903471513
C         2.21397547422153    1.50374660139260    3.03858821177324
C         2.74967677917589    2.52486547657011    3.87417129369922
C         2.16113676469503    3.76880177490625    3.48488705428587
C         0.27923371513620    4.49697161949308    1.83319764246809
C         0.35242328205421    1.37569997273576    1.22425760684432
C         2.38861656802166    0.02754620190848    3.22404369103673
C         3.49564221589767    2.30485338313790    5.15559127572456
C         2.24754100650054    5.03604738019658    4.28037749234326
H         7.72170189872176    2.90717589508771    2.78716847896003
H         7.12503131271787    0.72777962133157    0.60861848797702
H         5.27083405041208    1.17961485527260    2.94317967743868
H         5.13108272933845    4.32697149484748    3.44798505018958
H         6.97217429736935    5.62524723663519    1.39554590761034
H         8.02669111710554    3.54474406168785   -0.43634579707174
H         4.40004854949018    0.76419256240421    0.34771621531982
H         5.57513653500154    4.88300408472563   -0.94730692060412
H         5.54636110082899    2.26180563717271   -1.65354862108969
H         0.45779571059837    4.76906569803138   -2.35402886176441
H        -0.02683580043035    3.07167172904646   -2.27031850964620
H         0.39353639501344    3.79365650837717   -3.82654468232595
H         4.07126610122011    4.08733847164995   -3.06714236744368
H         2.87574268713971    5.37141915643806   -2.85499647816061
H         2.85597396209542    4.38206872006297   -4.32065583976749
H         3.37240800986488    1.66021852679289   -2.90002466332513
H         2.16585097481391    1.92087949648599   -4.17095977948635
H         1.68224024902329    1.24512410124179   -2.60871692239059
H         3.70236712395798    6.19068486018301    1.97779826906837
H         3.23727475288740    5.88084228959453    0.30019460396855
H         4.77257775702653    6.66669579203678    0.66058691818477
H         0.03562824579299    4.25424999610814    0.80029044307385
H         0.66102393186724    5.51596174108186    1.86074747274923
H        -0.64319835294243    4.46329157082214    2.41794206448815
H         0.03509123589111    1.99716770064903    0.38894220443328
H        -0.53525923268654    1.09418186410268    1.79592871400949
H         0.79944067152928    0.46720843117213    0.82424001089757
H         3.35258334516829   -0.20480425164353    3.67093845425737
H         2.31695719684839   -0.50010934126663    2.27437778003933
H         1.60632247453546   -0.35547799611793    3.88401133255766
H         4.17716761124970    3.12657309564542    5.36569079105994
H         4.07571064448869    1.38569347839165    5.12541381487644
H         2.78613289284919    2.23240388095497    5.98424489220678
H         3.26497472102074    5.23046320137224    4.61617403531812
H         1.61511969949732    4.95022999303755    5.16738038903357
H         1.90310463100846    5.89251202902911    3.70419297401866

