69
CSD_code = SEHWAF | q = 0 | S = 0 | Stoichiometry = C25H38FeO5 | MND = 7
Fe        2.79602296287359    4.06618239100542   11.27783325386905
O         4.15141259980406    6.48391016488032   12.22455512518792
O         0.24355063911973    4.43488982507846   12.61892537090828
O         1.57434130619570    5.01011582559687    8.80998579539175
O         3.09040691717776    1.57772999313846    9.35551789405963
O         5.05610518319020    1.38909974931368    8.26250182650634
C         3.63185727854745    5.53519057037685   11.85812168272153
C         1.24800523290282    4.26272802817494   12.09635502692429
C         2.04844967251841    4.62770268072033    9.78045761614725
C         3.63985869833517    2.24785654133906   10.44093383874592
C         3.86568411606065    1.24878023555819    8.29682757850652
C         3.00580910436339    0.72430659258267    7.17897419147983
H         2.18007979368355    0.14498127930022    7.59192360708146
H         3.61424341159164    0.09529719398321    6.52911256489076
C         2.45589855735231    1.91924644620711    6.38647049312209
H         1.86349244978322    2.55095080749418    7.05210231275964
H         3.29236143337915    2.51457447952849    6.01344149399591
C         1.59370886732909    1.46362524476773    5.21276087531508
H         0.75000025584313    0.87940244509729    5.58689425127675
H         2.18395869393121    0.81458891539828    4.56188208439259
C         1.07107053616965    2.64736656181910    4.40233548802101
H         0.47073520733803    3.29245752244443    5.04752549341914
H         1.91657363913210    3.23735785162616    4.04128966229714
C         0.22962329973858    2.19418666027518    3.21181653421457
H        -0.63027927539136    1.62433327984969    3.57156599200473
H         0.82605331845707    1.52840584660766    2.58330544023789
C        -0.25948083054628    3.37093303430059    2.37125970343661
H        -0.86851789261621    4.03197376735884    2.99203287279361
H         0.60138101217982    3.94675737178817    2.02332190327421
C        -1.07665139650314    2.91108950968660    1.16653352828938
H        -1.94930338160712    2.35246751238708    1.51320034815141
H        -0.47164025273608    2.23266863205974    0.56006021116207
C        -1.53689639304081    4.08148311748709    0.30120883502159
H        -0.66358024547553    4.64422511670575   -0.03720635244514
H        -2.15087111423825    4.75665526251197    0.90184300752702
C        -2.33654303411490    3.61544981279857   -0.91289384889025
H        -1.72578095335874    2.92858898054170   -1.50386514339010
H        -3.21765440004473    3.06449329675630   -0.57532857518202
C        -2.77734769351440    4.78126809248467   -1.79440910718715
H        -3.39157663775215    5.46711680661148   -1.20609952384636
H        -1.89591328840731    5.33359618576570   -2.12895784742435
C        -3.56963434611160    4.31166908082450   -3.01198158656944
H        -4.45213994198979    3.76097443604228   -2.67752791596244
H        -2.95544364632591    3.62379511409273   -3.59818436634926
C        -4.00751245257570    5.47558459155259   -3.89754975060195
H        -4.62156493105052    6.16368975079085   -3.31147276120380
H        -3.12491702965214    6.02616295622078   -4.23211537051552
C        -4.79942924094671    5.00471389609858   -5.11479446063174
H        -5.68013907873943    4.45127399539430   -4.77997734987082
H        -4.18391048024826    4.31948794332546   -5.70273172057235
C        -5.24265969910641    6.16750897165789   -5.99929161291858
H        -5.85815042461744    6.85262801721337   -5.41164028000688
H        -4.36238089699354    6.72050315162611   -6.33523777374913
C        -6.03327035354934    5.68975636290621   -7.21109124685855
H        -5.42937345508438    5.02112080701427   -7.82089479066871
H        -6.33967349659938    6.53260229677674   -7.82638598208001
H        -6.92526945431306    5.15215411234055   -6.89650485448475
C         3.14422840816023    1.99368206930220   11.72883636127702
H         2.38922330475208    1.23878184479279   11.90849706738298
C         3.71345479420011    2.83714219766928   12.74042073637182
H         3.30377818634798    2.70808212017694   13.74034732021656
C         5.22859191738300    2.97519009066480   12.74997921331310
H         5.65788051607866    2.04050085929898   13.12431336827682
H         5.51434198119081    3.76510111632868   13.44536064262190
C         5.74357992021095    3.27840764491262   11.33752603666726
H         6.26853330438552    4.23353020292087   11.30918640682656
H         6.44518988561545    2.50895597186965   11.00224243195738
C         4.58311181858876    3.32072653779869   10.35672021074254
H         4.89370749320650    3.60424022912647    9.35393652294489

