39
CSD_code = SEHYUZ | q = 0 | S = 0 | Stoichiometry = C9H25IOP2Pt | MND = 6
Pt        5.02605320651026    6.18462758407524    2.36846157451448
I         4.62761729705138    8.10418036706121    4.28842206671516
P         6.61646862409096    5.20311802617745    3.99156682443359
P         6.54536322643914    7.85209324631710    1.33528394151991
C         5.46798424698921    4.72445894532550    0.94378348099067
C         3.32880712341651    6.63613161637251    1.32638409838286
O         2.51394135846285    5.58871858170155    1.81255421128241
C         3.35283437424368    5.11368639808860    2.84568540439718
C         5.67514086716416    4.54267954827310    5.41404013962524
C         7.58878307240367    3.71805735777748    3.52080144122861
C         7.90387323936149    6.17003520407208    4.86723618048710
C         7.48318238406965    7.40305717516988   -0.17857878627626
C         7.83245769391778    8.77741761963540    2.25576459798120
C         5.54049287612200    9.24052300390581    0.69601668932098
H         4.95056049860483    4.88427434861906   -0.00090531181786
H         6.54417111566330    4.75861534606183    0.76025653511653
H         5.21377060493225    3.72617247352261    1.29934987492881
H         2.90370693154371    7.61283524441034    1.61179695102760
H         3.39530148621186    6.57272128125742    0.23075706841102
H         3.43403434773494    4.01966711822585    2.77885612031747
H         2.94137762086429    5.39307664062580    3.83000722539763
H         5.16514707663461    5.36136242990815    5.92025002968335
H         4.93065873359815    3.83080074684702    5.05836799302879
H         6.35205453982770    4.04868697594888    6.11168315164208
H         6.91633114605484    2.95143354114411    3.14010653736661
H         8.30184374420435    3.97596710776277    2.73906281610277
H         8.12581278318595    3.33245545080397    4.38690410775151
H         8.31382171501359    5.57426540413379    5.68267229725460
H         8.70214997531668    6.43112312482374    4.17402278898785
H         7.46733735341267    7.08233418305825    5.26991061967650
H         6.80201218566333    6.96660123069300   -0.90723808898992
H         7.95343945898311    8.28885218233587   -0.60451148721631
H         8.25101620871856    6.67008597297375    0.06557529995539
H         8.65812356209005    8.11223491764976    2.50412751415856
H         8.20156752892115    9.59702155459096    1.63933671407547
H         7.40792863156833    9.17856489166371    3.17445716034905
H         6.18208311802028    9.96187637707311    0.18912662259963
H         4.79500028550965    8.85906155968025   -0.00109250742264
H         5.02994975746363    9.72852522227448    1.52529810302361

