37
CSD_code = SEJFAR | q = 0 | S = 0 | Stoichiometry = C15H12N3O6Re | MND = 6
Re        3.91964309177487   11.79857101286268    4.85742278952989
O         6.73505807232873   11.93498828436344    3.60016660627608
O         2.39390326399344   12.15238749213515    2.18842082210233
O         3.77173804567329   14.85644098060136    5.35600344130047
O         1.99434099989659   11.41605654301728    5.97610985796514
O         1.32961724738808   13.28481021671856    5.18568029733283
O         0.06382527601239   12.13700554267258    6.48398567191184
N         3.79860667599800    9.68357841957156    4.90822539678485
N         4.59411682789269   11.31233401864814    6.81054196619782
N         1.09516186035874   12.30441949015380    5.88081915278515
C         5.67592055730419   11.91213273472869    4.04591691455569
C         2.99674263260005   12.04977711197603    3.15240563270791
C         3.81073995535824   13.73967812167360    5.13282781730824
C         3.43297722914429    8.90233236407279    3.89656976496800
H         3.40515442136988    9.36565931338240    2.91872790710312
C         3.10020107948714    7.57123797154800    4.04871061652643
H         2.80183240553365    6.99026527116981    3.19054327567509
C         3.13743035557833    6.99876115727720    5.31754213623753
C         3.54043558275162    7.81310550045615    6.36644726817949
H         3.58339560100711    7.40227840670243    7.36212847684138
C         3.86624080335256    9.14693673393260    6.13941806300813
C         4.31429870182055   10.05765889237350    7.20328503321719
C         4.45915547698654    9.66604681021573    8.53170899531722
H         4.21771276996440    8.65954102898638    8.83259960267574
C         4.89925512702129   10.56997101846543    9.48698268679569
C         5.20318684299544   11.85797809230289    9.05026701231241
H         5.55551164572857   12.60503395985523    9.74362012681668
C         5.03473760904926   12.17838329327600    7.71887231548672
H         5.26162431829388   13.17454358205578    7.36117115895426
C         2.78473409033722    5.56583274986515    5.53568898269573
H         3.66023927733822    4.94161532536905    5.35322844886217
H         2.00276538353243    5.25328648032159    4.84803147187863
H         2.45298741309268    5.39476110176609    6.55669758394532
C         5.05464167577445   10.18756358890516   10.92024972946108
H         4.67539843583338    9.18625427818037   11.10586901121088
H         4.52144838527229   10.89138985237802   11.55687872364375
H         6.10692086215680   10.22078325802316   11.20143524143352

