47
CSD_code = SEJFIZ | q = 0 | S = 0 | Stoichiometry = C18H12F3N2O10ReS | MND = 6
Re        4.50295919895786   10.88269825278212   10.42304779891952
S         5.79177064593857    8.63774461611660    8.72380064208367
O         3.45793786790196   13.66623245881405   11.25102555963344
O         6.90635127989415   11.87804594737834    8.73636919274094
O         6.35228422530211   10.58185667722253   12.88044264607980
O         1.05863503542700    9.91791068974048    4.32247079084230
O         0.31542360475394    8.23330081081731    5.60283679128258
O         0.59749178487391    5.83247015792030   13.35601060765370
O         0.18171306947892    5.60774626517011   11.16271428958439
O         4.99939732426833    8.74400679263771    9.95302201130365
O         5.38115552177955    9.58962660266515    7.72127019557049
O         7.18763633520921    8.43898873865304    8.91845023271208
N         3.18376617868591   10.68712574324820    8.79425366911906
N         2.92580448520065    9.72526854206549   11.21830996458469
F         5.56479101407788    6.65388169454301    6.89678521187613
F         3.76835583363124    7.11880429224487    7.99476912086336
F         5.34700538205287    6.00738854215868    8.94570457219523
C         3.87574815688289   12.64291135605085   10.93281299449115
C         6.01962907859214   11.55917613594200    9.36645317135491
C         5.67580634592491   10.75049954504182   11.97880788593070
C         3.28503008621270   11.31197004145116    7.62826756280767
H         3.95677448607446   12.15785444287168    7.59605592284861
C         2.58994636045690   10.91319959965386    6.50341696904439
H         2.70018024401704   11.42528003435860    5.56126721880217
C         1.75033368188210    9.80608511538241    6.59783061923977
C         1.61671229056989    9.17147872451280    7.82399833462116
H         0.96200552549160    8.32197797321237    7.91379614471645
C         2.35365585140957    9.64130361447416    8.90812884823076
C         2.25856126987784    9.06364971022744   10.25646345644026
C         1.52222456558149    7.91621488736395   10.53737725389503
H         1.02984180838648    7.36425777215778    9.75525231434207
C         1.45513408841338    7.45971212289488   11.84597550897303
C         2.10743999135079    8.18461893111181   12.84069485962882
H         2.05695164869541    7.85518566295389   13.86606262497973
C         2.83403282906919    9.30102387818929   12.47403968629535
H         3.36868869761739    9.88223894292969   13.21322873924752
C         1.01963318341795    9.34499919628956    5.37976497075838
C        -0.39823624605802    7.71793215878423    4.48583553950847
H        -1.07756916018293    8.47524201998873    4.08964109711729
H        -0.95169708704707    6.85636231606338    4.84958897746380
H         0.29677754193139    7.42277714329678    3.69769257654216
C         0.70889294695341    6.22190947987727   12.22261102223658
C        -0.53576909418516    4.40965046912396   11.43238307440942
H         0.11956314136887    3.67499184352777   11.90364516787949
H        -0.89102205639951    4.04568908405898   10.47215202577810
H        -1.37332813216688    4.61419347299224   12.10208034633093
C         5.10797916846946    7.00631750115984    8.09529178904012

