49
CSD_code = SEJGAQ | q = 0 | S = 0 | Stoichiometry = C20H24Cl3NTi | MND = 8
Ti        0.13626571578636    1.35371786440896    3.99618456859551
Cl        4.44480685309717    2.40459965626670   -1.42551540656737
Cl        0.09214367678847    2.55357964546378    5.81361028479842
Cl       -1.91028326325333    0.61538898665166    3.98546847796405
N         0.19148638796038    2.62688387750162    2.66684046954731
C         2.10144074081853    1.64785745796697    1.70112346209395
C         1.12590310586921    2.68056921203036    1.66033063534999
C         1.23151064901845    3.61243655111464    0.61772635201461
H         0.53030574698145    4.42261351504367    0.51558590133855
C         2.24642440531028    3.52018152679632   -0.31799286821734
H         2.30844337471341    4.24923919458875   -1.11089019955938
C         3.18219207637368    2.50303811928701   -0.24728067467455
C         3.11147021392356    1.55761464242175    0.76735590667325
H         3.83613074159532    0.76021048012536    0.82839709253732
C         1.90996698508545    0.70730861227280    2.82185974832832
C         0.98231971392716   -0.37183822284179    2.82271936695248
C         0.87578230292962   -0.83120262600593    4.15824919312389
H         0.31606761640008   -1.70232264515305    4.47961297878596
C         1.71371589161413   -0.03976938762682    4.98273331673088
C         2.34998041644553    0.92666523199796    4.15862757346803
C         0.30159283925854   -0.94425973253409    1.61683531497971
H         0.88232160175374   -1.77512528230603    1.20951450744525
H         0.20457548126375   -0.18360671373519    0.83995177041747
H        -0.69009094309232   -1.31528942040899    1.87894912149408
C         1.96821456711659   -0.24839397172808    6.44398091106186
H         2.97361859253320   -0.64710130782818    6.59516749862453
H         1.24994588973728   -0.95294745789019    6.86128917947104
H         1.89488187252375    0.69270139751392    6.99173038343412
C         3.36294933837638    1.94287548843139    4.59234571090898
H         3.02444869422303    2.46564092417445    5.48883055552906
H         3.52807152555393    2.67170614542261    3.79830571617152
H         4.31452456545992    1.45782212467817    4.82101218933990
C        -0.89675681785302    3.58615053560442    2.79874713831079
H        -1.45973267891167    3.26761481550370    3.69675569476043
C        -1.90299978342482    3.53512959060586    1.63952098017762
H        -1.44919110607331    3.87125229880203    0.70732465846488
H        -2.22391878651558    2.49615376938862    1.50730830459354
C        -3.09749691521703    4.42418176040793    1.97657096175329
H        -3.80750074008479    4.41737382403955    1.14746030444200
H        -3.60615606172648    4.02478799880565    2.85701383690353
C        -2.64014523960242    5.85366006100832    2.25880509008414
H        -3.50373038238029    6.47439883097213    2.50381472309067
H        -2.17503978496659    6.26951984586523    1.36176189332590
C        -1.63859798039413    5.88719964461896    3.41123057772681
H        -2.11796860966238    5.51694905647778    4.32037913158347
H        -1.31799099783826    6.91416535258483    3.59587882013272
C        -0.42457623052610    5.01806729471484    3.09230719538499
H         0.11218994352378    5.44000756225251    2.24298871602935
H         0.26058479608212    4.98719387185451    3.94627293550330

