49
CSD_code = SEJGEU | q = 0 | S = 0 | Stoichiometry = C20H25Cl2NTi | MND = 8
Ti        8.75401535879146    9.03050308782014    5.18564890791226
N         7.49546096244109   10.36579326846510    5.09700949255593
Cl       10.38492403501243    9.81919545253280    3.96988597751125
Cl        8.01032663255017    7.46923783301849    3.85994388017188
C         8.34745079249285    9.41097559539468    7.33594242626496
C         9.74357029235769    9.60759087330922    7.13521211155729
C        10.30695085520701    8.35239457784004    6.78096455104649
C         9.25971783683026    7.39912158379507    6.74705403881959
H         9.38107315508909    6.33428007477458    6.58276142331220
C         8.04313118562061    8.04465009292649    7.07888164879184
C        10.48683501877814   10.89314771177224    7.34207689193046
H        11.08445516941402   10.84501777399726    8.25522412216122
H         9.78436156031177   11.72241415445571    7.43087327559575
H        11.16054925230954   11.08775888199986    6.50536743235425
C        11.76518572725539    8.07209356109090    6.58340023370591
H        12.29217562323635    8.14051298305169    7.53763981999780
H        12.21292051826601    8.79607128926759    5.90045396435123
H        11.91183265733194    7.07177058696390    6.17800135865749
C         6.69172896118714    7.40826533233841    7.20227284896925
H         6.56983401000984    6.62326048565176    6.45449383899068
H         5.90836051814015    8.15602066326640    7.06554822433640
H         6.56843773195562    6.96168496093084    8.19182032433399
C         7.34424769555960   10.48818927992535    7.44326163195980
C         6.90349701716045   10.97231880462008    6.18331445111527
C         5.93901006645586   11.98843699862176    6.19381221704208
H         5.55082722590608   12.40342510807460    5.27906290558228
C         5.45724512290637   12.48867255563277    7.39140931230337
H         4.71495972818681   13.27334052971320    7.36627571962017
C         5.90407792307435   12.00766590041138    8.60891448655001
H         5.51816077833451   12.41131552072962    9.53189277496739
C         6.85454895126195   10.99681539009666    8.62836522946550
H         7.21878533354546   10.60030230593017    9.56526258033664
C         7.18318653060427   10.71586704491880    3.71856678319409
H         7.82355483966448   10.06086264650505    3.09722433877862
C         5.73844233073569   10.38605542027382    3.31406585778882
H         5.02583416428976   11.01097249848248    3.85227763103403
H         5.53871784962129    9.34060479674492    3.57330065874417
C         5.57789216182207   10.60370215840195    1.81162140412798
H         6.22517475388609    9.90547000737422    1.27585363841062
H         4.54686510304714   10.39815245186220    1.51736013230344
C         5.95214947551727   12.03520362929864    1.43346996684363
H         5.27416472374829   12.73142342726954    1.93323579041810
H         5.83681397196454   12.17363158893746    0.35690697373958
C         7.39035248051393   12.34700630487979    1.84169281226171
H         7.64055277092128   13.37407611574767    1.56897258988820
H         8.07229038680211   11.68218504466658    1.30641868778957
C         7.57490207476561   12.15358196390388    3.34463770179781
H         8.62182460245957   12.30963562996268    3.62641925941136
H         6.96782408268761   12.88102605233818    3.88292767123053

