82
CSD_code = SEJGIA | q = 0 | S = 0 | Stoichiometry = C35H43MoN3 | MND = 7
C         5.89200225965855    8.18639819585971   11.93303823349683
H         5.14468971949085    8.63257951973882   11.28170963020723
H         5.62219429527472    7.14708617986689   12.11446838069632
H         6.85378173914880    8.19727952442635   11.42015310661308
C         5.96928424021971    8.92923877251408   13.23850013452387
C         6.48471063211021    8.29285590061605   14.40036486701423
C         7.18581487836080    7.08896172673448   14.43996010760781
H         7.51884375742952    6.63187383560248   13.52141534332828
C         7.45599743972621    6.49417806589750   15.66263304024652
H         8.00979257555737    5.56928790204990   15.71046760975460
C         6.98671160801304    7.09325866558487   16.82044155517723
H         7.15781459219460    6.63411504651745   17.78097124237881
C         6.30229986206389    8.30612967465990   16.74193261348284
C         5.70034195303585    8.99885169273496   17.82637863158917
C         5.59636015870380    8.33831241099425   19.17397114897159
H         5.21611285347742    7.32355329960265   19.06137786499130
H         6.57600667473207    8.27995659930060   19.64761767320896
H         4.92571851266330    8.89225778339288   19.82571906826617
C         4.52829975448597   10.69217295298004   12.57116709501618
C         3.20704367041341   10.83220933842074   13.02749942668607
C         2.25599994498224   11.44429804496261   12.23439497519355
H         1.24263992815973   11.54313606411963   12.59850196469981
C         2.58876893588226   11.94332596373816   10.98060134072124
C         3.89882031017232   11.81289932545005   10.54870541469365
H         4.17563955717734   12.20880032638209    9.58115093503998
C         4.87818826755305   11.18973206361215   11.31254602268825
C         2.87634744977513   10.29529508042362   14.38694219962399
H         3.60857161488358   10.68678248163506   15.15061855381664
H         1.88000749111415   10.61511321773561   14.68826483708498
H         2.90916616503157    9.20000021758598   14.38919538699752
C         1.56811408784020   12.61905965374156   10.11531433121108
H         0.59023980634994   12.61239569522878   10.58987649227880
H         1.85491571633975   13.65320262720176    9.92756790214223
H         1.49123955581908   12.11581570742816    9.15217461450027
C         6.27488130503809   11.11702788655136   10.76688179298241
H         6.95829192555128   10.66921585838463   11.48118535126475
H         6.62849310419250   12.11863745085469   10.52327306287352
H         6.29484279915617   10.52870196176366    9.84916645002581
C         4.47945836368750   10.86175488124659   18.53800277705205
C         3.07991052207791   10.90627713567443   18.53928670884031
C         2.41215816885332   11.70075065209657   19.46022561949836
H         1.33150600509024   11.72975116469037   19.42986333955369
C         3.08997061634947   12.43007505568277   20.42117797594462
C         4.46882386732732   12.29277885927527   20.47957695977259
H         5.01804649374162   12.80132762182294   21.26017915942336
C         5.17088516367717   11.51138651937682   19.57566133115423
C         2.25824936117591   10.04665631877386   17.62235857557778
H         2.88384725272544    9.36313888821841   17.04978593488262
H         1.55985818256656    9.45473866342624   18.21437547702604
H         1.67116412926698   10.66338331728672   16.94391310548384
C         2.36836600915775   13.30369613071433   21.40228587347627
H         1.29548875716017   13.27923508263585   21.22872914005169
H         2.56367254368801   12.97451790703389   22.42249900116612
H         2.71102145643393   14.33405997165637   21.31434598060786
C         6.64776950910821   11.34647324524411   19.78603131965440
H         7.12688774898511   10.89929814991390   18.92247553846034
H         7.11236533437179   12.30781479189458   19.99717476002110
H         6.82135294525470   10.70240712235548   20.64964715964285
C         5.04460335750016   12.75706986572637   14.67927875460888
H         4.12770712520403   12.94742688809039   14.11083114269749
C         4.87894663047061   12.76424163481178   16.09710346773675
H         3.86109556993439   12.96750125689032   16.45276590225242
C         5.89374129567532   13.45968199304776   16.98361901920456
H         5.56780038417138   13.35050697197818   18.01925536718094
H         5.89442228259888   14.53698882307964   16.76801828272489
C         7.31977738849255   12.90098009801205   16.83727315554007
H         7.91256728775122   13.56133207928744   16.19852154839000
H         7.80516991736851   12.90008966348215   17.81465400500193
C         7.35009362010596   11.50207715599196   16.25394415625663
H         7.92556201297464   10.78198489164050   16.84306233348580
C         7.43789410241350   11.34397246366525   14.85005614398953
H         8.05076238336096   10.51178958277591   14.48828682963076
C         7.47734965981722   12.53524002754719   13.92504854923508
H         7.55870896888087   12.16674397931477   12.90275811870085
H         8.38872502973450   13.11540176208621   14.11942814018728
C         6.23751353771731   13.44203940732785   14.03346042649481
H         6.48350387344299   14.35030944234044   14.59280711119706
H         5.95421495746404   13.76194043087909   13.02683764030269
N         5.38329573480544   10.07753776459708   13.47990014724151
N         6.09212231181333    8.93829941992896   15.54645450867059
N         5.16059670767656   10.15717265807703   17.53088394414002
Mo        5.41453428801910   10.74475354605978   15.46140716674878

