73
CSD_code = SEJHOG | q = 0 | S = 0 | Stoichiometry = C27H41N2P2Rh | MND = 4
C         1.02353765988646    3.25142429411013   15.43792758109503
C         2.80069908730603    4.77266949215058   15.46318211623285
H         3.84315594913925    4.49088805369766   15.64391314561397
H         2.66480131141259    5.81611333375671   15.76928435930952
C         2.37071101769419    4.52499008911706   14.01865843894066
H         2.05472377356907    5.44648703870615   13.52091220229354
H         3.17672979806681    4.06312802045878   13.43924058247867
C         1.99861098206815    3.58340721630709   17.55075386349281
C         2.93264240212339    4.17812076994506   18.38077748674597
H         3.58203075360342    4.96478578734397   18.02005170751672
C         3.02429729022142    3.75008908105667   19.69556580550686
H         3.74436251734620    4.20230205258236   20.36302137931710
C         2.19725605359854    2.73434665940604   20.13315007592284
H         2.27861581187416    2.37740156797459   21.15174492260398
C         1.25701026354024    2.17044566158592   19.27973975196183
H         0.64275932912710    1.37122594498764   19.67468113380031
C         1.09893873741686    2.57615187169806   17.95554553737992
C        -1.05507652727877   -0.58841243724668   18.70814981373794
H        -0.81460039243736   -0.33235738562467   19.74692536623358
C         0.20683809560843   -1.10623009384302   18.01967823257238
H         0.91344780105603   -0.29019851997973   17.85922834901547
H        -0.04786122853432   -1.53406353322015   17.05204798780569
H         0.68996276345148   -1.87719462204418   18.61861183931172
C        -2.14031414502195   -1.66022373096661   18.70020189116951
H        -3.04734997437855   -1.31740379173520   19.19291958443415
H        -1.78794170923685   -2.55331869588449   19.21594447825295
H        -2.39071304593577   -1.93689045523724   17.67686329435993
C        -3.12420635299049    2.49825900168574   14.28512897488896
H        -3.46257552236575    2.29720546461470   13.26409321326046
C        -2.22703766907343    2.06576829771502   19.24352239997330
H        -1.39502695371517    2.16882512038790   19.94853419836111
C        -3.44123881804388    1.50822294491073   19.97548048326951
H        -3.20189497301771    0.57581843474194   20.48208167160917
H        -4.26139768319917    1.32737465508608   19.28137457343269
H        -3.78258326940016    2.22043107844947   20.72632688450151
C        -2.50961116771503    3.44835691837301   18.65612321776196
H        -1.67093492047774    3.74419334275142   18.01039073510054
H        -2.62252178070607    4.19150813994343   19.44408880131971
H        -3.42374539099867    3.43912160246099   18.06401494689957
C         0.55635594432786    3.19341662706140   13.00413070126396
C         1.05859316236800    3.59287310266877   11.75595429778665
H         1.96451010695871    4.17171441234629   11.69046624339099
C         0.43030465086369    3.26541570980463   10.57311402422124
H         0.85809881744962    3.59127707953195    9.63647907177721
C        -0.74327342774159    2.53546881478856   10.59460961891536
H        -1.25597415602280    2.28402268369786    9.67849990801413
C        -1.25014340711963    2.13473055433747   11.81435744454299
H        -2.17303645825787    1.57978503710532   11.82506704419411
C        -0.62588527791121    2.42507154240873   13.02419711489800
C        -1.51925234874149   -0.04035763142238   14.27780509617921
H        -1.97300019596555   -0.38794609012654   15.21838859660319
C        -0.06581201719035   -0.51253658026339   14.25104671461959
H         0.48210161926131   -0.04954270479048   15.08340750189875
H         0.41077245348646   -0.21233893729477   13.31809687047221
H         0.00105038040128   -1.59609374035571   14.33902710490485
C        -2.31353449704437   -0.63249418058412   13.12001398314255
H        -3.30594126274835   -0.19302678093921   13.04116327151517
H        -2.43625602450073   -1.70354269054435   13.28450323403565
H        -1.78802755857322   -0.50490093388426   12.17691207906806
C        -4.12603838188934    1.91310323717230   15.26881101301878
H        -4.21767586476985    0.83535599979128   15.14727496365635
H        -5.10902326044352    2.36053242822209   15.12083648321491
H        -3.80220222347076    2.12115235451747   16.28662722405400
C        -2.98776836586690    4.00564694837448   14.48523897735051
H        -2.35969320767775    4.43994352105139   13.70812358884898
H        -2.52176328252696    4.20414371641885   15.45297606567590
H        -3.96021429817741    4.49539293761763   14.45828210817710
N         1.90313719394656    3.90746522840378   16.19354002615931
N         1.23794246705560    3.60078174042966   14.14118626733255
P        -1.59576407569315    0.99324199755284   17.85378319965022
P        -1.40643423580011    1.80947348959825   14.56746534287608
Rh       -0.23622667458914    2.12349712183075   16.45624158996285
H        -2.85392616697450    0.49190531526624   17.47909220108824

