73
CSD_code = SEJHIA | q = 0 | S = 0 | Stoichiometry = C27H40ClN2P2Rh | MND = 4
C        -1.69070533089916    7.20621824768648   22.12207993405116
H        -1.02123819283356    7.27035276383110   22.98230172247876
H        -1.14927346831161    7.52951098373466   21.22372517549349
C        -4.00750994329889    7.40039165909474   21.87815925433702
C        -2.28425007555164    5.82158357215185   21.93456864083764
H        -1.77724562969493    5.24119224322824   21.16098666740966
H        -2.26889415397575    5.25411818948305   22.87391521967763
C        -4.39235828217292    5.14927135822344   20.88320763720403
C        -5.39568037008716    5.44198820502592   19.94062296586142
C        -5.97069651768166    4.38130281458378   19.24714820559005
H        -6.71788853502751    4.57639903822359   18.49625606763102
C        -5.60917015059010    3.06660766229429   19.47358753508286
H        -6.07552804394623    2.27271064105858   18.91021602241847
C        -4.65540700076876    2.78215395200812   20.43315501706241
H        -4.37550903549574    1.76120144304892   20.64547170363531
C        -4.05104074534105    3.81464414672636   21.12084525978687
H        -3.31368009258772    3.57203904217879   21.86974709689899
C        -2.74037350565738    9.26346696018729   22.94006661463891
C        -3.74477220371864    9.85159243504162   23.73136069187459
C        -3.43991266014085   11.03059397332697   24.40486989060133
H        -4.17709649211171   11.48644960936556   25.04435018756739
C        -2.20691450216834   11.64600043480989   24.29831272745942
H        -2.00865063181960   12.55772732654148   24.84106691438001
C        -1.23953016423808   11.08751163845770   23.48369106026609
H        -0.27802960195692   11.56408120214215   23.36475188327035
C        -1.50441535468918    9.90590410699690   22.82199890739010
H        -0.73857383624148    9.48884459694623   22.18720068947534
C        -4.83866661260149    7.78262501304084   18.34009198575881
H        -5.34937999197107    8.67162578504967   17.95155346563586
C        -3.49064829308489    8.23515507140943   18.89194767929124
H        -2.91304323041202    7.37910828997188   19.23659782424771
H        -3.63956532846338    8.92705659992348   19.72340589780040
H        -2.91570289882968    8.74321327869889   18.11793825278285
C        -4.64426033902894    6.77849900879277   17.20956542423983
H        -3.99819376675488    7.20803149320879   16.44428751886181
H        -5.58725041609671    6.51532946967876   16.73818950211149
H        -4.17685831442901    5.86680296280498   17.57818017516608
C        -7.56902671640085    6.98141749138715   18.81082397444333
H        -7.40390317780323    6.33577558513644   17.93952858467832
C        -8.09025278775019    8.32541051518102   18.30577916226004
H        -9.09504082401455    8.19695027466558   17.90545213365137
H        -7.46393283483878    8.73149421587964   17.51395202041481
H        -8.14038070275415    9.04141756978552   19.12203489897444
C        -8.59116157842440    6.33324652994446   19.74252452179004
H        -8.83172120129596    7.01963728986488   20.55072802420501
H        -8.20713098436703    5.41181986389608   20.17896839366710
H        -9.50813592019516    6.10560583443933   19.20026010483672
C        -6.46889647701789   10.46435090098485   24.48799986418480
H        -5.99575948341688   10.83312803807976   25.40634949891336
C        -6.55949595110975   11.59722354860846   23.46757005847811
H        -7.11451480998724   11.25709667873177   22.59656624283090
H        -5.57189976507240   11.92020533547385   23.13974133457431
H        -7.08110738286800   12.45269539692934   23.89507172718638
C        -7.86560699463980    9.96292140582204   24.84972224104080
H        -8.49554829928691   10.80914742912352   25.12087614302740
H        -7.84367139640529    9.27757425977635   25.69473937510772
H        -8.31932722989119    9.46295326675324   23.99784753527636
C        -5.29054979476456    7.94516564954658   25.25693218904973
H        -6.33257698776145    7.73764856519338   25.52766788523912
C        -4.56794794242509    8.54615734949555   26.45723572136271
H        -4.54622218288629    7.82352766261987   27.27247844105287
H        -5.06611592892516    9.44085307255998   26.82021847436791
H        -3.54130931537711    8.80294858385069   26.20182732775492
C        -4.65064653902652    6.62032096191152   24.85457787148503
H        -3.59353578543731    6.75901781706065   24.63427526691243
H        -5.15170946279602    6.21526943034239   23.97299871472175
H        -4.73661199189236    5.89619958356258   25.66448682521481
N        -2.88317063424414    8.02002418529903   22.32808899991533
N        -3.65343096385633    6.13145015974334   21.53942988100435
P        -5.41432254552623    9.09570766701698   23.77543808084318
P        -5.95217696057336    7.17565516341601   19.72799601680095
Cl       -7.82061069395762    9.06787132972462   21.59157826976326
Rh       -5.76973404033341    8.17220616921562   21.74581277669369

