83
CSD_code = SEJKUP | q = 0 | S = 0 | Stoichiometry = C33H46N2NiO | MND = 5
Ni       16.21568591201131    9.30234499831456    4.62281850412002
O        17.02564079269716   12.65477244065570    4.21849976963277
N        17.56311074529982    6.63511751331067    5.26130774519185
N        15.74788012943077    6.30813545285767    4.17546035788327
C        15.81805668507276    9.53406402897993    2.66344944577218
C        15.76117546042459   10.77493474935752    3.26824037700291
C        16.85845017876339   11.80025096553111    3.10607520528759
C        17.40993537242137   11.94763876238237    5.37849593179219
C        16.38954786214075   10.94546552711078    5.86135924386804
C        16.75721146544571    9.78550263238089    6.51033121942701
C        16.52070601462721    7.29571163042702    4.69591414148425
C        16.29071708229406    5.07157024635903    4.41630622330742
C        17.43489732841710    5.27686013744474    5.10101708769757
C        18.67750563940044    7.18295751761189    5.95390280294952
C        19.61799005222170    7.96220526824671    5.26379816514979
C        20.74744842836778    8.38094071676020    5.95126787850497
C        20.93567560864746    8.05538635697733    7.28217692161691
C        19.98208625999976    7.32204651868879    7.95626645743317
C        18.83723485145882    6.87467429136822    7.30774688512099
C        17.79653043526329    6.10824340974696    8.09356816578064
C        17.27912376930399    6.95274013949598    9.26077967610133
C        18.36303867244757    4.78130575720716    8.60515027816394
C        19.38226942185283    8.33991971918059    3.81886947321831
C        19.61102882498429    7.13416433555636    2.90175764450126
C        20.24326059065352    9.50490414421307    3.33644480363447
C        14.55871932007844    6.46436316686688    3.41378113119652
C        13.37429256193798    6.84441609717188    4.04998442566875
C        12.22408410676260    6.96673253716347    3.28157697034673
C        12.24153662143468    6.69066347820473    1.92887928576477
C        13.41694179119188    6.29949409074475    1.31787669214248
C        14.59585467848094    6.18761394415526    2.04220427589467
C        15.86981178468405    5.77757118370235    1.33844842232431
C        15.79115904670794    4.30943871874462    0.90971430665512
C        16.15009178609785    6.66522824449563    0.12392840193097
C        13.34302457774798    7.16608436057007    5.52392575621794
C        13.36658011894025    8.68722843537666    5.68538034169900
C        12.13476357725555    6.55221033086359    6.23245475099224
H        16.68070015771482    9.28390297002999    2.04919526684339
H        14.89680005777490    9.02822903931107    2.39059889577436
H        14.78736674551204   11.20914383943801    3.49545622122788
H        17.81355754528991   11.30252847186516    2.86981370783982
H        16.60087021366638   12.47340781343079    2.27868590689299
H        17.54218618202308   12.72308407964415    6.14338027375546
H        18.37997371552127   11.44827671494893    5.21436053017127
H        15.40636898593817   11.37797248775530    6.04774762228742
H        16.07730941181059    9.33013026773665    7.22433507445608
H        17.81061286059053    9.58497353284600    6.68304086133676
H        15.81492288263114    4.16832106453410    4.09570893155046
H        18.16627985008513    4.58768314013097    5.46935464804113
H        21.49674303568862    8.96956089618581    5.44846778226899
H        21.82578796208192    8.38726567457929    7.79592893935670
H        20.12843706993309    7.09302166374442    9.00036741945470
H        16.94177275521133    5.88918130416687    7.44777283548045
H        16.90460691871244    7.90648594421517    8.89834519864647
H        18.06483605504110    7.14677321417011    9.98597431984242
H        16.46940363106856    6.43050913917350    9.76604894764519
H        19.18224480774291    4.95296917673102    9.29874288038736
H        18.73717338588961    4.17361558780540    7.78390573857817
H        17.58864840847300    4.21929213215998    9.12258527413062
H        18.32533036970878    8.65870696182614    3.74400989667261
H        18.98581896640852    6.28983356159367    3.17917065104732
H        20.65182154584659    6.81770097619279    2.95622006934576
H        19.38597318913238    7.40102605993640    1.87134378518887
H        21.29167476645026    9.22143366506174    3.26181573421806
H        20.15488246717573   10.35922039030316    4.00373817438706
H        19.91256863948575    9.81169819503928    2.34562910605293
H        11.30214121611094    7.27840771483265    3.74611717143353
H        11.33631557072869    6.78245041804102    1.34700567281727
H        13.41766027076187    6.08513552996392    0.26051999676419
H        16.71150254564499    5.89294146885029    2.02650007908420
H        14.97812407527667    4.16122877275296    0.20296566096698
H        15.61841831604578    3.65992395611363    1.76493770766556
H        16.72127425907529    4.00845762220227    0.43268139446172
H        16.12890342455469    7.71388484213314    0.40723482755619
H        15.41540626784235    6.50647534955175   -0.66095972862427
H        17.13293370658539    6.43394685423158   -0.28171953623713
H        14.24584602613164    6.76419270858549    5.99445893255869
H        12.51208977623028    9.14048633620427    5.18756755360756
H        14.29267102506023    9.08492511602941    5.22753171383431
H        13.34719612053732    8.96010443103004    6.73812423882287
H        11.20857816942772    7.03347663244603    5.93017885546948
H        12.23960437932350    6.67575130694100    7.30821291235526
H        12.06039471328727    5.48896112734571    6.01303868948713

