74
CSD_code = SEJKOK | q = 0 | S = 0 | Stoichiometry = C36H28BrCl2N4OPRu | MND = 6
Ru        8.91879814519219    7.98653444017603    3.07594733337083
P        10.03211901431420   10.02826872896412    2.73452513386577
Cl        7.87266141012630    5.90583454567848    3.27143079610998
Cl       10.95512510988193    6.83534132091370    2.71308347496029
N         8.41683266559334    7.88457771809559    1.11146407247434
N         8.89949731646771    8.28956672859700    4.98951510594414
C        11.23358680751617   10.58207357640084    3.98765585911676
C        12.01269676272428    8.37273629825708    7.72569254261506
C        11.03731301444969    9.35602634255749    7.78408547243195
H        11.10813847861681   10.15107376054954    8.51030335099698
C         9.98377143403315    9.30754885517657    6.89788505705570
H         9.21141197821752   10.06153991759983    6.92203064586809
C        11.02198305176365   10.40593785926414    1.25356971217109
C         7.19697990040335    8.45283570455816    0.93699356355911
C         6.51237353291733    8.97332638837660    2.08172344236650
C        11.93442953202453    7.32810653683835    6.81860101093278
H        12.68808347417308    6.55618277087938    6.80857555098146
C         6.58797768886080    8.50792335773787   -0.34075459891857
C         9.91922759276794    8.29512856272885    5.93528881326130
C        11.22882831875061   11.83909346305265    4.58070091589523
H        10.46500541673181   12.56184786080534    4.33114414446315
C         8.69728931136596   11.26220337405104    2.69999612480475
C        12.48461016278760    9.69703289294931   -0.51237036414306
H        12.99708424559209    8.90575269675264   -1.03872654265444
C         9.01615966434800    7.31030171129625    0.09213582108986
H         9.95987290565559    6.81933040767167    0.29768127970970
C        10.88783197168427    7.29025615882691    5.92108057091643
H        10.80899750504307    6.48355901030673    5.20772079728720
C        11.99840997088205   12.02893827664704   -0.22251322657879
H        12.13101483477570   13.05736652277510   -0.52518260257053
C        12.63391277653760   11.01189449946539   -0.91867673026128
H        13.25559391711118   11.24954534585924   -1.76917248392333
C        11.68566690673947    9.39056079406205    0.57611751793736
H        11.59560098863496    8.37167089423032    0.92507538281316
C        12.25351018769225    9.67795923130570    4.28086391794370
H        12.25888007258791    8.71081484780531    3.79379137095668
C         6.95037842150032   12.42656216098115    3.88070237441643
H         6.48383413892060   12.71641446171684    4.80988672546794
C        13.21355949009640   11.26033979315304    5.80560938099352
H        13.97677227656702   11.52222144763291    6.52327468249694
C         5.28235110239628    9.58268267270322    1.89658236302119
H         4.76143865534845   10.01716798755651    2.73252113571984
C         8.48019798979007    7.31204636166988   -1.20117239596052
H         9.02442890256041    6.82880296964693   -1.99660397381391
C         5.33387382023200    9.13525847631262   -0.47364276245354
H         4.88115442459624    9.19018323799001   -1.45210482715532
C        11.19978076562592   11.73237739768661    0.86505411021893
H        10.71418580267664   12.52683599335899    1.41481105071888
C        13.23926776845382   10.02059581123330    5.18652397059358
H        14.03045864477934    9.32060594676488    5.40955648303996
C         4.71035988105014    9.66277083934162    0.62566035346990
H         3.75207653405400   10.14893652686017    0.52317542699443
C         8.09033490078041   11.64520076331315    3.89594319140783
H         8.51394539343109   11.31722545374834    4.83739985182513
C         8.11623661015171   11.63636056604844    1.49089317987305
H         8.55866867294731   11.30885803970388    0.55885308860089
C         7.27703919134234    7.92363586579070   -1.42527720692223
H         6.83356778577198    7.95425960860412   -2.40943135057930
C        12.21388166065475   12.16720563082196    5.49628369425412
H        12.20243494310739   13.14037813733625    5.96519727958233
C         6.97640525901241   12.42008667401740    1.48118015707175
H         6.53427960247032   12.70805485544305    0.53877679743599
C         6.39414044609385   12.81753376927282    2.67309477356763
H         5.49824503195695   13.41887618725653    2.66383345703378
Br       13.49408529139253    8.47604008133105    8.90773804579207
N         7.74648955737735    8.67654124473472    5.45066248499353
N         7.18822527812397    8.78990569625717    3.26407779686161
C         6.79923704552578    8.90284417987606    4.53522266527492
O         4.77470724662858   10.16821889237137    4.68856241992779
C         5.49301379503849    9.30077944657953    5.13518405326051
C         5.17443710016944    8.53748687389283    6.38570124942493
H         4.27997348833961    8.94160948800089    6.85192871644733
H         6.02344734797171    8.58078948930245    7.06328479990101
H         5.01550966605067    7.49101557048772    6.12917452434790

