64
CSD_code = SEJKOJ | q = 0 | S = 0 | Stoichiometry = C27H34N2Ni | MND = 5
Ni       15.17010479492857   12.88032432732100   13.07155656694382
N        15.49300174540206   15.74744598262501   13.90052179413778
N        13.86540564909418   15.63923624258739   12.51356110046077
C        14.67505915269191   12.43553718059573   11.11725153034993
C        15.39165101926686   11.38852233654317   11.63599576543304
C        14.76779747879534   10.10594592626313   12.16510438435409
C        14.47378225820522   10.26988706376155   13.66561699883293
C        15.48933633447099   11.23620023724732   14.23883936355000
C        15.16640563387845   12.27522493609852   15.06955701247137
C        14.74933924966124   14.86301401251837   13.18733081094010
C        14.05479624219874   16.96812393289637   12.79812660869509
C        15.07921113814317   17.03585220362322   13.67552769778582
C        16.53055475608969   15.41633998292786   14.80905996552020
C        17.66704444997015   14.73890516409439   14.35785625822037
C        18.68253769906362   14.46811525640538   15.26284916351050
C        18.59229233702746   14.84376997659425   16.59384861004247
C        17.43884297266087   15.48358735644914   17.02369033504239
C        16.39863261706244   15.77137754758244   16.15297123374089
C        15.15109826413251   16.42003736958919   16.67720777630237
C        19.70763894106704   14.56626760555509   17.55541575704630
C        17.76939714404208   14.26825346522017   12.94323755285685
C        12.88478004022982   15.17594157037914   11.60051428101105
C        11.86698157083755   14.32953786100187   12.04505880473114
C        10.89729986925161   13.92329699189184   11.14102217966584
C        10.92364545829419   14.32915019441352    9.81562811259506
C        11.96357394459100   15.14431055753276    9.39237316857529
C        12.95250338675453   15.57328015440859   10.26430808500143
C        14.08400433984458   16.41785913021974    9.75692759554532
C        11.85849351766043   13.83035391829782   13.45386275870862
C         9.87563923742340   13.87775251727799    8.84420032336899
H        15.47114406858556    9.28416888870353   12.01018586390208
H        13.85088001636018    9.87481023771074   11.61693205594639
H        13.46742920151795   10.67655259371352   13.80033513371618
H        14.52291343818409    9.30873620141826   14.19025657679201
H        16.52462581402183   10.89853856528946   14.18620990360629
H        14.14902144744748   12.39351831312504   15.43303919872308
H        15.92892988878403   12.74670272806221   15.67917956925911
H        13.44421031355500   17.73844561960430   12.37470197919975
H        15.55242727884140   17.87857962714264   14.13529400254338
H        19.56293867143253   13.94476740693919   14.91802015053732
H        17.34075407355777   15.75509524605939   18.06531187154291
H        14.27511720854440   16.08034988143869   16.12927288676255
H        15.20917239290328   17.50534395586445   16.59246693098306
H        15.01956498242744   16.17558135404666   17.72859540859623
H        19.32304196255578   14.12380220813563   18.47251345234898
H        20.21343324603914   15.49508792472666   17.82007422816240
H        20.43854604768993   13.89034386887588   17.11909218835114
H        17.59492996155151   15.08045538727398   12.23824281952355
H        16.98910217772733   13.49117923604091   12.76736954883718
H        18.74407348942891   13.82937587906575   12.74844353950013
H        10.10711921154912   13.26860184915767   11.48054095611562
H        12.01076188305432   15.44512469045382    8.35528612143413
H        15.01462355783903   16.15713394128006   10.25704425636314
H        13.89130079489716   17.47709091242563    9.92790749192430
H        14.20972226433975   16.27006745071447    8.68705950166567
H        11.88659829097393   14.65422275117286   14.16612507216902
H        12.75956342333035   13.22210363372262   13.61069382153315
H        10.97927893505583   13.22180583843915   13.64751669066746
H         9.47054783791653   14.72672981313062    8.29601232859254
H         9.06203485334748   13.37028538272119    9.35605850506920
H        10.30874025405446   13.18930135749756    8.11872223669886
H        13.59364444640908   12.37026788284979   11.03676110332587
H        15.14568271227464   13.14391423434015   10.44268635727066
H        16.45347461106486   11.31486413693535   11.39492665289242

