56
CSD_code = SEJKEY | q = 0 | S = 0 | Stoichiometry = C23H28N2NiO2 | MND = 4
Ni        9.28113284725304    3.85643250913736   13.86162350453424
O        11.02421702412107    3.71604948587344   14.41043712933016
O        13.06730635180667    2.94461064981427   14.05374563145832
N         7.47802124910294    3.52502702253822   13.63935841357216
N         8.69639240441814    4.81887136539204   15.52031234081433
C         9.90279369437487    2.81742818178219   12.35030553130870
H         9.19195746364728    2.11304641377717   11.89963354385393
H        10.10735713388079    3.62768186543609   11.62352149102196
C        11.21860155627927    2.12017950795106   12.70373967472210
H        11.04029253197146    1.12661919092131   13.12186665484488
H        11.87784444621850    2.01064635707329   11.83839222316706
C        11.88461936148442    2.97177071706181   13.79337795534699
C         6.82006270176966    3.73941141162231   14.74327450126410
H         5.77567484215501    3.45308951491721   14.84252291288930
C         7.49023765119468    4.42859598308414   15.79140719320133
H         6.96814671889655    4.68020979920741   16.71070744945291
C         6.80007983711837    2.92540727338735   12.56196718107854
C         6.53407721660559    3.70316002144539   11.42877977957687
C         5.86754812453576    3.12429045310549   10.36368627398546
H         5.65313032429659    3.72196744875567    9.48937814042071
C         5.47516280983294    1.79158824370999   10.39120322955701
C         5.78143051855273    1.03129421001924   11.51012783921365
H         5.50832130665444   -0.01405916179187   11.53353909933604
C         6.43958393907280    1.57518863099381   12.60268093467205
C         6.96832397517372    5.13569031308043   11.40420491245695
H         6.31655978427921    5.74572809152918   12.03051838919122
H         6.94470358736864    5.53077894809463   10.39237401849076
H         7.98440598258757    5.22026804497653   11.80298729620078
C         4.76792673143857    1.18954930360327    9.21586277178259
H         4.35576121804677    0.21526285692817    9.46520748255768
H         5.46228784220663    1.06601972967415    8.38478923763436
H         3.96084835066809    1.83832860017920    8.88063650903308
C         6.82217821286829    0.72470927736739   13.77727724004019
H         6.81063866112645   -0.32700409921634   13.50288073775314
H         6.13108322304063    0.86404108928114   14.60880921088108
H         7.82380376896481    0.98930706988196   14.12238644738320
C         9.51192371802804    5.53576252501683   16.37023440313405
C         9.68698756191465    5.23116140353480   17.73172839803362
C        10.58256146019209    5.99003695380008   18.46770194562185
H        10.73567032060044    5.74466289189418   19.50944087018829
C        11.30049071899818    7.03738051931610   17.90805172077957
C        11.12938934276995    7.31314482547407   16.55612102413404
H        11.69665484067032    8.11326489234842   16.10287564405906
C        10.26046701036480    6.57600597156465   15.77814903729639
C         9.01326397277790    4.06069683368258   18.38553275563939
H         8.83159299973201    3.26041620905204   17.67008706125459
H         8.06016924873255    4.35276560017755   18.82912461333155
H         9.64272363898637    3.67176906031317   19.18292941070629
C        12.27150868468657    7.83071065599225   18.72417394914308
H        12.10085675094338    7.68559748131168   19.78829849788323
H        12.19329103002761    8.89135247611776   18.49313388962556
H        13.28935482976714    7.51407057756527   18.49472072562707
C        10.06380978252939    6.88383744528457   14.32813348233432
H        10.06074404670576    5.94201951628049   13.74730657072821
H        10.86200295777014    7.51998539632207   13.95561112736511
H         9.10792369077568    7.38297244435778   14.16172199109104

