89
CSD_code = SEJLOJ | q = 0 | S = 0 | Stoichiometry = C42H40NNiO2P3 | MND = 4
Ni        3.42672986003997   12.62385818601387    4.63291933720472
P         2.31681470840894   13.87477413758311    3.32325343831539
P         1.57627738642099   11.61161593397536    5.24416722151532
P        -2.20453040167422   14.42464938210816    2.48691751981677
O         4.44455421460898   11.27308680804370    5.45913351348568
O         6.44767167939260   10.48778959248471    5.95547069797967
N        -0.29102330925913   13.37762899917295    4.15380193920036
C         5.14730222046487   13.46733269323551    4.36173378252939
H         5.29356405936909   14.08519630082907    3.46447645083054
H         5.15384097616582   14.13524286193479    5.24775429405990
C         6.26066621773376   12.42403599873924    4.49497537337393
H         7.17713155562513   12.85714727706853    4.90643036122730
H         6.50414112367150   11.98383338788812    3.52449124222144
C         5.73630067161308   11.29264166843723    5.39146447804693
C         0.64771466790290   14.44888581635503    3.90292951672782
H         0.80317888810870   15.08342245121943    4.79755483975680
H         0.23341142822679   15.08771679243623    3.11216763976013
C         1.91938519283372   12.75777854803028    1.94775490461778
C         2.77038640319833   11.66383055798591    1.80323697563288
H         3.60641740567450   11.55132049997924    2.49676765702663
C         2.55041210367821   10.73157480934961    0.80797066996545
H         3.20976027841046    9.88299356662103    0.70558397564126
C         1.47210242587028   10.88602485777381   -0.04790105830533
H         1.29059330374139   10.15751597202326   -0.82422343164174
C         0.62090206076751   11.96999653264851    0.09329058931295
H        -0.22281009280394   12.08226281408450   -0.57116105644261
C         0.83895513512215   12.90721164801839    1.08694777939128
H         0.16415981529295   13.74557864982780    1.19460382101558
C         2.86654511922887   15.42888400792911    2.54737362513232
C         3.25932334026592   16.45543198873643    3.40238193096619
H         3.23538080675334   16.28814122490141    4.47167911499532
C         3.68979160111054   17.66380988261989    2.88934130813886
H         3.99209009178637   18.45843339377837    3.55538018500840
C         3.74286397065265   17.85024462894438    1.51672063062193
H         4.08430262822808   18.79188073690069    1.11327334646325
C         3.37004598096714   16.82577612562603    0.66290671689010
H         3.42230482380405   16.96864505042994   -0.40645146485305
C         2.93410032033875   15.61488074085891    1.17282238574341
H         2.65237392167091   14.81257595690753    0.50627104110743
C         0.01109420454099   12.61207452398424    5.34897106688697
H        -0.80887423157748   11.91105355007185    5.54062400345747
H         0.11033774559278   13.26638599291116    6.23857448863176
C         1.12325134396368   10.22732444782986    4.16307038117806
C         1.95266035548497    9.10830653074028    4.21644104874482
H         2.77721032046527    9.09959112532187    4.91700751942790
C         1.72577220321135    8.04023782709380    3.37067915804621
H         2.36566261213318    7.17128629071545    3.41576626755196
C         0.68348703601262    8.08879300249219    2.45708834307383
H         0.50975628768923    7.25540640962873    1.79182324638573
C        -0.12554237722009    9.21012336653713    2.38662486245589
H        -0.92695782170553    9.25976185762586    1.66324828681251
C         0.09222140703674   10.28210767107011    3.23385917202427
H        -0.52308734020614   11.16537458106269    3.15375960589029
C         1.50613606148636   10.86344087073928    6.90050118579015
C         0.59543601479126    9.86269083251810    7.22226764498142
H        -0.07964755430040    9.48342252299479    6.46651447211911
C         0.57229751372025    9.34251237018553    8.50303037156792
H        -0.13008504771685    8.56022034498980    8.75283908434315
C         1.45251937112196    9.81579931383708    9.46376139645194
H         1.43469790070322    9.39939571773284   10.46028459708297
C         2.36127095282149   10.81117647470036    9.14514720695494
H         3.05512712852552   11.16971924319536    9.89084192905627
C         2.38786693023622   11.33490452311061    7.86547222455508
H         3.11150279603781   12.09186748123181    7.59043499870109
C        -1.64266210981966   13.90690711366037    4.19901443314912
H        -1.71837572530639   14.79367311332600    4.85471389462905
H        -2.32644704765582   13.15184373694124    4.59604566040803
C        -2.67722899633265   12.82660983705298    1.71405091735545
C        -2.71588298386965   12.84455412136956    0.32176319766543
H        -2.46082425754176   13.75986744595618   -0.19673891327966
C        -3.08295239632148   11.71909008274542   -0.39232994640410
H        -3.11607918006746   11.74963208768521   -1.47188601149107
C        -3.40683631447884   10.55274693028028    0.27992536938791
H        -3.69048825228707    9.66871898113103   -0.27207866407919
C        -3.37076877707418   10.52467865120120    1.66405758762927
H        -3.63180066378613    9.61938221719503    2.19343313447391
C        -3.01153761751523   11.65343374089906    2.37954566887607
H        -3.01245283959315   11.60663065363093    3.45830460084527
C        -3.85344566782916   15.03146163185867    3.02369639571678
C        -5.05326284680148   14.39451568684239    2.73264357881900
H        -5.05561765357701   13.46768135483449    2.17716605417924
C        -6.25100121260875   14.94626656610278    3.15283076040623
H        -7.17890630482162   14.44143705701089    2.92635307555784
C        -6.26477594916182   16.13765018351821    3.85729334409706
H        -7.20187440929219   16.56309386027364    4.18400191440719
C        -5.07316173593462   16.78907570046359    4.13236058129251
H        -5.07938961355748   17.72622299109641    4.66978079710438
C        -3.87645463754210   16.24369290406577    3.70981393969716
H        -2.94621920348518   16.76180599704862    3.90489477489287

