95
CSD_code = SEJLAW | q = 0 | S = 0 | Stoichiometry = C35H54N2NiOSi2 | MND = 5
Ni        6.77494732733659    2.30400982747763    9.59129992754939
Si        4.53396303740106    4.49805302965098   10.81857041442265
Si        4.43100170388963    3.95889853564299    7.87816268131220
O         4.51254295146323    4.89549964089664    9.22527604365133
N         9.66237873808981    2.38125979491788    8.53181364275637
N         9.58569408517891    1.17808091640915   10.29939018820139
C         6.40716507522115    1.86583427094636    7.64428182618365
C         5.20809604049649    2.26577880362375    8.19583602793911
C         6.73726507037869    2.75442566244023   11.55511663393645
C         5.43590165462864    2.86056768571766   11.10069418253127
C         5.31565932806142    5.96944672074196   11.73625698515260
C         2.73120571441200    4.27390924938311   11.39323104390173
C         5.27188310737517    4.93547619999516    6.48128579123836
C         2.59120059302446    3.69291699942553    7.45944905924010
C         8.80174945034021    1.92093603567364    9.47553851538295
C        10.94028992596426    1.93303268268518    8.76305763911802
C        10.89126655456829    1.17398781840367    9.87649378909452
C         9.20809092730902    0.50995165037051   11.49500737554923
C         9.64573573790425    1.02759686418217   12.72017940075209
C         9.33086369422229    0.33035401275333   13.87833274957257
C         8.59031360452811   -0.83454881416531   13.82735711538272
C         8.15529676961768   -1.32415983472043   12.61197690600033
C         8.46643049033887   -0.67187875217272   11.42599498383652
C         7.96113741989219   -1.20847547926893   10.10977087102111
C         8.17233933042664   -2.71715770528886    9.97292259853261
C         6.48173528417534   -0.84108706941388    9.97836136363257
C        10.43330138584313    2.31507104388908   12.81330482913949
C         9.78611610666451    3.29607588195648   13.79383601175112
C        11.87788383325057    2.02970763702357   13.23424022677854
C         9.39137363594596    3.21732195068356    7.41390135082153
C         9.00059581047646    4.54907266484895    7.61310733155035
C         8.87626396595813    5.36303849525661    6.49591156024240
C         9.11261478298132    4.87479991560456    5.22373300832592
C         9.45504544798179    3.55107499035098    5.04357502083297
C         9.59992877801232    2.69918623285234    6.13150125034762
C         9.93958436797927    1.24494263097990    5.88855720096018
C        11.32749090086688    1.10392030973477    5.25761503855065
C         8.88382019624581    0.58733646876950    4.99561790077159
C         8.71882120302847    5.06418344075946    9.00624227191926
C        10.02899632076558    5.26104714482545    9.77772381067941
C         7.92043960966149    6.36416470390480    9.03459181833402
H         5.04517313300272    6.90822195068209   11.26634437701840
H         6.39714753309485    5.91177321830427   11.76532516103220
H         4.96474123046302    5.99435395457953   12.76169052977741
H         2.25819935356110    3.42792094616174   10.90479374966778
H         2.14565587074041    5.15602452094555   11.15615467683519
H         2.66968296374028    4.11434595472613   12.46460267853145
H         6.35322893147659    4.91773329715030    6.55828717085045
H         4.95266595226012    5.97270198864605    6.48604006169569
H         5.00575480580383    4.51052981290281    5.51930569044456
H         2.08487321398354    4.64727971817556    7.35975369584665
H         2.07977784515096    3.13242691406601    8.23530327357323
H         2.46889220654010    3.15466781428382    6.52545638765818
H        11.76193744173861    2.20368761935837    8.13302148364908
H        11.65445656392298    0.62771345620850   10.39035358685844
H         9.66280013131127    0.70514709047605   14.83390491259145
H         8.34786341038950   -1.35978180851394   14.73934457449970
H         7.56874936101892   -2.22873613185370   12.58552791107243
H         8.50284032931961   -0.71906924130276    9.29456001223073
H         7.52464422039311   -3.27249740563711   10.64602265409178
H         9.20538582265556   -2.98210124107014   10.18949992257867
H         7.94271750904784   -3.02846438897880    8.95617099295298
H         6.38127167569411    0.25793160835563    9.97882202189416
H         5.90974915437704   -1.24318699223836   10.81175385253116
H         6.07269470710776   -1.23289877430256    9.04980561071134
H        10.44652503287968    2.79694507984943   11.83218597555079
H         9.86041112277799    2.93931416704034   14.81765655872762
H         8.73572221293777    3.43672887988271   13.55420317253371
H        10.28859366599541    4.25936938268261   13.73507932436829
H        11.90472531325133    1.56987445543125   14.21929891586753
H        12.44641376483089    2.95631404363344   13.27128569367933
H        12.36570164315122    1.35644021597799   12.53312393902097
H         8.59229234674135    6.39559717334649    6.61179556173653
H         9.01371876446211    5.52888421305136    4.37017134542766
H         9.61384860711712    3.17450340069641    4.04512569858232
H         9.93941716411922    0.70826109409394    6.84133925764410
H        12.09125657472107    1.56102352695910    5.88301954747601
H        11.35791995754365    1.58404289427948    4.28276667986985
H        11.57438920437449    0.05228762696367    5.12927111707722
H         8.89070946502150    1.01550071069060    3.99682197911710
H         7.89217781261806    0.72172250643571    5.41936927592151
H         9.08413284170136   -0.47870822700624    4.91023119888079
H         8.10483794071289    4.29755384002138    9.51239257947966
H        10.62491360651661    4.35273626824596    9.81069441731510
H         9.81724855596739    5.56667626178614   10.80013956736885
H        10.62562262345934    6.03927135870001    9.30341279019287
H         6.97478774151055    6.24846409409895    8.51365771072720
H         8.48240679450138    7.18899212770186    8.59952967900575
H         7.70120636889580    6.62481283274204   10.06661229001724
H         4.79525149175871    1.99212585689817   11.27019469640514
H         4.52775014306839    1.47822555039796    8.52691542781885
H         7.31031295714701    3.65673504551373   11.75249140326640
H         7.04658195902934    1.88721117388597   12.13446389949938
H         6.94345368062269    2.54585623679353    6.99172304639991
H         6.61883731565512    0.81136207119343    7.47526587777722

