103
CSD_code = SEJMOL | q = 0 | S = 0 | Stoichiometry = C48H49IN4Pt | MND = 4
Pt        6.95045863041849    8.93398952168005   19.13958847842908
I         7.39988107460381   10.91230672993624   17.50268929572451
N         8.36000427385155    7.62643601419085   18.51759468906554
N         9.51736810062072    5.76962005024671   18.92360534751017
N         5.41244807602219    9.66806678701815   20.20453763127567
N         3.81851716144040    9.39014037311889   21.73747787030578
C        10.26455934869394    9.50200576129735   19.42454733432909
H         9.45049472979397    9.19059286361952   20.07629890065467
C        11.11289435555809   10.51606704400945   19.83272960757585
H        10.96457600526568   10.98228567382742   20.79566673827076
C        12.14190355361629   10.93672711966965   19.00894667863591
H        12.80177556260003   11.72968451320347   19.32819028409142
C        12.31588249408896   10.34573958652759   17.76880626065741
H        13.11040620356349   10.67760385250467   17.11663307381542
C        11.46493360093086    9.33745562339123   17.35674032756273
H        11.59021104385404    8.88405361398353   16.38336818511233
C        10.43313637015947    8.90829359744993   18.18169796638622
C         9.54674157499376    7.77749367850650   17.70734531000296
H         9.26531818148448    7.96670830531942   16.66360165010471
C        10.27210173460726    6.40664826974781   17.84884088999720
H        11.31127793150635    6.56183474839502   18.15889201458112
C        10.23208497238994    5.60832094568004   16.57263226273789
C        11.40354178135203    5.25356295132128   15.91857627093167
H        12.35812943770154    5.55113212754712   16.33063963519514
C        11.35547670596568    4.52875508636883   14.74012707576030
H        12.27301521994089    4.25798522751461   14.23880783226019
C        10.13524142484461    4.15305439763627   14.20604151132154
H        10.09777821066936    3.58668380554285   13.28754472982613
C         8.96154415132877    4.51062229866605   14.84953687648098
H         8.00721713460010    4.22549221960772   14.43244578031750
C         9.00897140735967    5.23669389843299   16.02466607686851
H         8.09331420263250    5.51813607279646   16.52476241438918
C         9.91639019766696    4.52990920417173   19.54939432039886
H         9.53042091020866    4.55974323831675   20.57481403917638
C         9.33426124037881    3.30662833579154   18.82748796150834
H         9.75170401340485    3.25202912815506   17.82029883916585
H         8.25138396686923    3.41337865217553   18.73322904189062
C         9.67994267313116    2.03450312965809   19.59492927058048
H         9.26906068859512    1.16783791923369   19.07383768138616
H         9.22780496657064    2.07092117439647   20.58955897701636
C        11.19257559864174    1.89163482352281   19.73169434757251
H        11.43052600354822    0.99615723290241   20.30872006515924
H        11.63475296020464    1.77899201851164   18.73931035608864
C        11.78763524261542    3.12000436257844   20.41364714668500
H        12.87287145595740    3.02046377414658   20.47572232114783
H        11.40105137529266    3.19560102116605   21.43279216392537
C        11.43653181973612    4.38805222492082   19.63859841210880
H        11.86017028284499    4.31922469233624   18.63537865823955
H        11.86241652518963    5.26004644690936   20.14027623179269
C         8.42078066304018    6.50711091488939   19.20423579484383
C         7.35736384462933    6.27968538423222   20.17940317653408
C         7.00907236645566    5.16412225592093   20.93627404460437
H         7.51671289895248    4.21718579346047   20.84113639608763
C         5.94759339615712    5.25835818637095   21.82559116105749
H         5.68445280529068    4.39019876940167   22.41285077096822
C         5.20275814221717    6.41864563276938   21.98346120744233
H         4.39232836512675    6.40680933683187   22.69498675663068
C         5.50610010439720    7.53628551023353   21.20887686370152
C         6.58303500391944    7.44055118915250   20.31513249487903
C         4.87693641221786    8.84936570763035   21.08225080546784
C         2.80812644457974    8.65360459591984   22.46675522887380
H         3.33336361735521    7.95238914249467   23.12254746265060
C         1.96217992082039    9.55591869123501   23.36428048439767
H         1.40627813832929   10.27563445113257   22.76230414839208
H         2.60913361904610   10.11354015827337   24.04378011877390
C         0.97271263476627    8.70525983000660   24.15779455006687
H         1.51954182817041    8.01041747260560   24.79960334457702
H         0.37319846316806    9.35143552738282   24.80117725239470
C         0.06546727095129    7.92055955244875   23.21477615090547
H        -0.52122665771495    8.61848100052843   22.61327827358936
H        -0.63091662147448    7.30909401597167   23.79142666977044
C         0.89561865030452    7.03212007641110   22.29354627981604
H         0.24314173293516    6.49679022078328   21.60141458350958
H         1.42877866449724    6.28835387327222   22.89085310902647
C         1.90254878348787    7.86669335394090   21.50914400400770
H         2.51639242776156    7.22124051056482   20.87649275238910
H         1.37334355377454    8.56729253844541   20.85868831397975
C         4.81435336949547   11.75495453149414   23.10520173641168
H         5.50461365239177   10.92526006060864   23.05251660178601
C         5.00681252961042   12.76186572318530   24.03289421976652
H         5.84887925564726   12.71691559056161   24.70772438179697
C         4.12509461319323   13.82834099632729   24.09384678598568
H         4.27664450189039   14.61516311016118   24.81763610844739
C         3.05190084443868   13.88510312543308   23.22136575639894
H         2.36493786682483   14.71745122015931   23.26130727788630
C         2.85578540386023   12.87496348442209   22.29621945621103
H         2.01814696265940   12.92147865460552   21.61412743385513
C         3.73167408645464   11.80008113236480   22.23478775819090
C         3.54848463927811   10.72076104971930   21.20129414564143
H         2.53477408640670   10.76729120149518   20.78442515868033
C         4.60151438971552   10.85319935442221   20.06115856605230
H         5.21786158893948   11.74999529552468   20.20289052205036
C         3.93197044655926   10.92956129424758   18.70709398565458
C         3.37405417968924   12.13490347958353   18.30147902293238
H         3.46310767517788   13.00224605511501   18.94047626064607
C         2.72576300419272   12.22925557492181   17.08433696361593
H         2.30299059328326   13.17303302282243   16.77294760366971
C         2.63124578153713   11.12003930889262   16.26050064748561
H         2.13430189241925   11.19644330880938   15.30469012801300
C         3.18666411524614    9.91748913876978   16.65960045792226
H         3.12628357355604    9.05252727285016   16.01539063648151
C         3.82962552724108    9.81925788763811   17.88097019745511
H         4.27579436985604    8.87445529567690   18.17708715354753

