103
CSD_code = SEJMEB | q = 0 | S = 0 | Stoichiometry = C48H49ClN4Pt | MND = 4
Pt        6.77410814773245    7.15868354138490   18.75580498942739
N         8.19772981734035    8.44813669523898   19.34726243835826
N         9.38960020323317   10.27521469772082   18.90815284602990
N         5.20819540356808    6.42178515189544   17.73385692502917
N         3.43035057176288    6.82924905365067   16.45907227453059
Cl        7.23904889014276    5.36044952646384   20.15408109467916
C         6.38725970773086    8.65245688691378   17.59665254802518
C         5.29208968738665    8.55811563953022   16.72322401107844
C         5.04391725670441    9.62927805944553   15.86841534847428
H         4.26022961950284    9.61297348471810   15.12732382209533
C         5.83842493296144   10.76484564986734   15.96049791998349
H         5.62134038307334   11.60148649934642   15.31180158301263
C         6.89952173951202   10.87196745860132   16.85033921113970
H         7.44554175327439   11.80170233368579   16.88463120145214
C         7.21133856976873    9.78706216997052   17.66608761508780
C         8.27780973859355    9.55411988505916   18.63873239527296
C         9.36725617709360    8.29733403190244   20.17936422144938
H         9.05953085601949    8.16958836341804   21.22503513283661
C        10.13814548439438    9.63845265126480   19.98754881925836
H        11.16682941861302    9.43960886633172   19.66658593008099
C        10.21095899533504    7.10574227753321   19.78547521065510
C        10.04571951573242    6.45894967090543   18.56924915167378
H         9.27426713155739    6.78337917973054   17.87597530754145
C        10.84483521491351    5.37680578930000   18.24364712021435
H        10.69675309146471    4.86685866046259   17.30311590130572
C        11.82349232321353    4.94316145314055   19.12002974613921
H        12.44263950220050    4.09521057043893   18.86591216321377
C        11.99964285314730    5.59282002611282   20.33023939158516
H        12.75693669507645    5.25409317709698   21.02237905807224
C        11.19543732684772    6.66707919979963   20.66184901223468
H        11.32078559212868    7.16646581049226   21.61286517450623
C        10.14509392973827   10.46809943898573   21.24418624394343
C         8.94410877615365   10.90724964350325   21.79135828350431
H         8.01362658525617   10.65467661320486   21.30356916763930
C         8.93871210198415   11.66291671089018   22.94886698586680
H         8.00150450719139   12.00191953348425   23.36465198559434
C        10.13204349475509   11.98225044893861   23.57622754183662
H        10.12741628968732   12.57261095474719   24.48034051368877
C        11.32992797157048   11.53796303397368   23.04397106126947
H        12.26241925817380   11.77847736820430   23.53302443343702
C        11.33614918437457   10.78419028321706   21.88280903084505
H        12.27295618121023   10.43321805248456   21.47205827844289
C         9.80738545916932   11.49937073489990   18.26355631773529
H         9.44298785264173   11.44868891894710   17.23113962411331
C        11.32955736867937   11.63494759282452   18.20475506433417
H        11.73099636955690   11.72388684565015   19.21542159315707
H        11.76352378584952   10.75173007876899   17.73118626007112
C        11.70170218926722   12.88510119268206   17.41077144778616
H        12.78826725457984   12.97877215455349   17.36608237379393
H        11.33274377111639   12.79060308869708   16.38677390594869
C        11.09902305833202   14.12902969541367   18.05648344519927
H        11.35636530709829   15.01329348627960   17.47057501756906
H        11.51768900464793   14.25570082687892   19.05732839887745
C         9.58293653179108   13.99508938644998   18.15876588591143
H         9.15589054596787   13.93831153002388   17.15420330140641
H         9.16272778103483   14.87449576484821   18.65009445631123
C         9.21374336670457   12.74084031050898   18.94469518332635
H         9.60787996491930   12.81638571993202   19.95974918266788
H         8.12881136148137   12.63932296583287   19.01444176730602
C         4.61729063977918    7.27717435165883   16.92722420198346
C         4.37819967713572    5.25725882970680   17.92881386894551
H         4.94638794888879    4.35423941711438   17.67167985270950
C         3.19512789787078    5.46993602120483   16.93620384712422
H         2.24014669286926    5.41881014863198   17.47151746146240
C         3.89466618085752    5.12360376976527   19.35503314818368
C         3.93264219801128    6.18887391277774   20.24338064372966
H         4.34431871204017    7.14567709879463   19.93450620184542
C         3.47042940415479    6.03036417468625   21.53825121382178
H         3.52071657058334    6.85912657152713   22.22909268844269
C         2.95376899993749    4.81511722516459   21.95083228066393
H         2.59843165600116    4.69220537956926   22.96353772245776
C         2.90424096815825    3.75232865983741   21.06453842701496
H         2.50979634312588    2.79836245414648   21.38329016120187
C         3.37455298979085    3.90570581231527   19.77373758731417
H         3.35092853290624    3.07291816865033   19.08431552908759
C         3.20983176824156    4.46052185299597   15.81909697303737
C         2.16056164136380    3.56738176897560   15.65234989539199
H         1.31962736934825    3.59719888271113   16.33162764560984
C         2.18893126328411    2.63654413452155   14.62805594606779
H         1.36708199951983    1.94630386257070   14.50687119266789
C         3.26732938109898    2.59105877920277   13.76165196589703
H         3.28807932576319    1.86686156374947   12.96098453834052
C         4.32260823011974    3.47325639963215   13.92807855303123
H         5.16913531913961    3.43630977960620   13.25860630866744
C         4.29638181115724    4.40067532217705   14.95286150124341
H         5.12049555160807    5.08683036597292   15.08545802277095
C         2.51057878887694    7.54466035930225   15.60404106488446
H         2.61329377165841    8.60690303879097   15.85431109929330
C         2.83500339568143    7.34626063845978   14.11643866927387
H         2.69190252755466    6.29627007628732   13.85488266876374
H         3.88136196918646    7.59700275884348   13.93084393987761
C         1.91762834883736    8.21488154330308   13.26163578081296
H         2.08452545385604    9.26900162692648   13.49780110479910
H         2.15082307708975    8.06913910405119   12.20536528975482
C         0.45759375287932    7.86249052216216   13.52788174090162
H         0.27670284449002    6.82775574284939   13.22848239049970
H        -0.19533522640436    8.50331238807478   12.93251704788774
C         0.13223257796862    8.02376088036329   15.00968649648904
H         0.25138927044523    9.07104163593471   15.29717387437852
H        -0.90633280301124    7.74350249222168   15.19485438778686
C         1.05462356081105    7.15302661603248   15.86001719081606
H         0.81514575801187    7.28249904710683   16.91763461065324
H         0.90202800618351    6.10652798532644   15.59164094848977

