72
CSD_code = SEJPEE | q = 1 | S = 0 | Stoichiometry = C29H39BP2Rh(1+) | MND = 7
Rh        8.83916310055342    0.29774417479596    3.18539997940870
P         9.37857476309271    2.24516580492910    4.21807355733801
P        11.96743672793897    2.11176609083962    2.62408422805530
B        10.97106286833529    0.77064083402695    1.69874911464579
H        10.39727459786642    0.14808100631808    2.67086274479162
H        10.19026145204228    1.33829766673528    0.99570984107636
H        11.67989111233117    0.01140762216321    1.13613384870799
C         8.33248617227872    3.63800912106609    4.72421970259812
C         8.40175861013871    3.80690536918532    6.06104541870608
C         9.25950296534108    2.83511671160263    6.75042564715129
C         9.88358980351032    1.95943116546863    5.93382127772099
C        10.77250803298193    3.23046235062619    3.46675063253558
H        10.32843627705489    3.87419252579821    2.70085777288708
H        11.24316144666514    3.85714415156607    4.22811198483266
C         7.57297046114609    4.45855376045220    3.73184686016153
H         6.50387196608704    4.43765333540477    3.94392439741603
H         7.72893326679619    4.07209547978172    2.72470759706242
H         7.89386430395128    5.50003086726451    3.75709940965008
C         7.68667917637264    4.86629915556768    6.82656136791928
H         7.09321553606905    5.49254300846531    6.16803660198917
H         8.39886723910904    5.49573768236588    7.35814792250492
H         7.02749966193319    4.41632038098516    7.56742414815686
C         9.39211864145368    2.86616174820491    8.23419573079899
H        10.07888880829276    2.10173525257329    8.58369252928326
H         8.42212209057507    2.70952117458278    8.70429613635745
H         9.76151401422847    3.83771431200345    8.55850304509980
C        10.71911864874027    0.78013625804181    6.31802912719070
H        11.72976555525604    1.07976082354772    6.59652647353849
H        10.78595667032291    0.08778244858596    5.47511457151376
H        10.28054717051248    0.25184697241209    7.16346943827398
C         8.72140539492141   -1.86599094828636    3.09135744870470
H         9.74565936986196   -2.24428417640284    3.06366812644970
C         8.18451126087326   -1.37490236555094    1.91896652040431
H         8.82766610178126   -1.34682611971082    1.04005260568880
C         6.70434047741997   -1.31595561793638    1.62911969185142
H         6.54640280235257   -1.48213155204380    0.56277450492856
H         6.19917723373781   -2.12187524037786    2.16048216580702
C         6.09931690022180    0.04975619178401    2.00447606364378
H         5.02319785112581   -0.05086725545780    2.17614508864185
H         6.22610601136736    0.73589447237166    1.16255484278776
C         6.73366645161897    0.68303722516758    3.21690353796931
H         6.57598958136538    1.76120829698466    3.26923894250910
C         7.07025854951207    0.02956687733825    4.39585790099014
H         7.18429093227637    0.64752049930039    5.28834160345307
C         6.76717463248894   -1.42557427907070    4.67459771185750
H         6.57293699429695   -1.54774198620447    5.74076594924610
H         5.85589567127130   -1.70724992350728    4.14795070706091
C         7.93303356070658   -2.35328764642053    4.28241935433795
H         8.61776968003535   -2.43852168041576    5.13028401985980
H         7.55693082842638   -3.35932737475740    4.07190727221140
C        13.07796506378019    1.55850071650490    3.94621593160863
C        13.35645754384962    0.20260361795028    4.08128669971890
H        12.91141402734517   -0.50433182758151    3.39573513730690
C        14.20273825191752   -0.23456723603580    5.08577056564097
H        14.41826731224026   -1.28701476344503    5.18864407222876
C        14.77512592197697    0.67887925520773    5.95580637755340
H        15.43516833621789    0.33824576509049    6.73852030564165
C        14.50874808031542    2.03309739602787    5.81758192082374
H        14.96384906503265    2.74522812682489    6.48913803880054
C        13.66524584000936    2.47520435008064    4.81549149511995
H        13.47460905611219    3.53309719420837    4.69774714101590
C        12.95740538010049    3.20973796541291    1.57212623841916
C        14.34583852472651    3.23836824813822    1.64585540887981
H        14.86252744492541    2.62894955244938    2.37344082364135
C        15.06528669994602    4.04812841940663    0.78449021196701
H        16.14234481959186    4.07075166255818    0.84758025459802
C        14.40791238508043    4.82187636809896   -0.15741603949864
H        14.97251808389370    5.45182718319627   -0.82699650473350
C        13.02526377271042    4.77900483909992   -0.24831002039487
H        12.51325766448035    5.37114986683417   -0.99125810119486
C        12.30112942482873    3.97119070771134    0.60787463920058
H        11.22435587425775    3.92086794010040    0.52189023784356

