43
CSD_code = SEJREG | q = 0 | S = 0 | Stoichiometry = C18H19Br2N3Pt | MND = 4
Pt       -2.40752098364490    0.06724705075430    4.90012321999803
Br       -4.39796688958162   -0.82843715907926    5.94385304240526
Br       -3.63981763513666    1.79539543561685    3.79229343174821
C        -0.68249901768776    0.71088924293761    4.12393960426761
N        -0.26188945744528    1.00028231488583    2.88306734814571
C         1.51819825404444    1.06328102029337    4.16753275396287
H         2.49573326624806    1.15124271847325    4.59477832076198
C         1.09155613262593    1.22068035050264    2.89212633940672
H         1.63612642890267    1.45080166497185    1.99980938595619
N         0.41016907118775    0.76021703975463    4.91190026352122
C         0.34437181134192    0.43433812709028    6.31491698872189
H        -0.39060671537434    1.09630461071337    6.79757786614926
H         1.32187378102158    0.59094464130363    6.77313938852907
C        -0.10361827357256   -0.99997207836042    6.47760755325979
N        -1.25804730066291   -1.34442165811481    5.88899887860018
C        -1.66477753313606   -2.61281757898020    5.96788166763177
H        -2.59833565472553   -2.85604559243951    5.47971934281035
C        -0.95766955137679   -3.58046563552397    6.65651803435017
H        -1.33566108265143   -4.58861204778893    6.69757040962494
C         0.22353588789368   -3.22790542004259    7.28959378758987
H         0.79655022496332   -3.95233450902801    7.84642308153423
C         0.65839705793618   -1.91509889381962    7.18351953610705
H         1.57662022535217   -1.59814449706157    7.65319647737885
C        -1.07557185226130    1.07870598057984    1.71770245841195
C        -1.65854833010505   -0.07964350832551    1.20465916431592
C        -2.42668019137131    0.02504385366545    0.05603791105309
H        -2.89252400427155   -0.86287475578578   -0.34540401052939
C        -2.62660792361241    1.24382108764240   -0.57543299115829
C        -2.04948296641990    2.38071922804143   -0.02914138935583
H        -2.22356904131504    3.33965771597650   -0.49393440922907
C        -1.27655302118864    2.32251442104974    1.11883957790440
C        -1.51487007094354   -1.39573652173388    1.90576327364671
H        -0.48555368821398   -1.58220274777312    2.21163809498823
H        -1.84757601089509   -2.20940296013862    1.26761002288722
H        -2.14863016248992   -1.39322932371215    2.80616967756388
C        -3.49035405758916    1.33291981205351   -1.79412270891186
H        -3.25439064732793    2.21950955214086   -2.37656070371795
H        -4.53602364656062    1.39320680933884   -1.49399795856983
H        -3.37198729386532    0.45257502497051   -2.42142893318050
C        -0.73949080564012    3.57185336840701    1.74589759393973
H         0.34827422916814    3.56762205964095    1.80084795685673
H        -1.13473284785121    3.66356317364619    2.75708460772567
H        -1.05304971376648    4.44230858325199    1.17768604289494

