60
CSD_code = SEJTOS | q = 1 | S = 0 | Stoichiometry = C27H31PRh(1+) | MND = 9
C        10.01709847102111    1.63386409886530   -4.90711496329064
H        10.41744722645895    2.47588578783022   -4.34353478040698
C         8.65092290092552    1.40851053575289   -4.81683321651573
H         8.08507274097058    2.07604810428189   -4.16812740982057
C         7.85099610728704    0.78173632924857   -5.94103352127164
H         8.31932506321689    1.05221987814817   -6.88778348868056
H         6.85021464797707    1.21592257290928   -5.94875602200031
C         7.72969469878757   -0.74645497784755   -5.82087251751648
H         6.83544375412963   -0.99645290324813   -5.24324970547164
H         7.60633965095164   -1.19316400043556   -6.81252013789005
C         8.91099004114560   -1.39954749185323   -5.14278635796258
H         8.67060444801312   -2.37998477991172   -4.73758419504595
C        10.23958120698443   -1.14671153486332   -5.44944698593393
H        10.96090742591555   -1.92566105175808   -5.20686132356198
C        10.67859104652477   -0.20614778699309   -6.55132428358394
H         9.93003386757682   -0.23318160963206   -7.34394580538864
H        11.61128819877151   -0.57804275654552   -6.97759611753463
C        10.90031252860209    1.23295842904465   -6.06457615543439
H        11.94159313792672    1.34729267115242   -5.75572104649096
H        10.73427659702492    1.94185622150563   -6.88298874815900
C         8.86844514222180   -0.59854973573886   -0.60867080686834
H         8.29542750510891   -0.80846834417846    0.30081906154519
C         9.86474371553025   -1.72041702050632   -0.87709292173175
H         9.35175168464787   -2.68064299161178   -0.79406909022354
H        10.65216091711401   -1.70329961245074   -0.11698346165707
C        10.51205260901256   -1.63049998839714   -2.25244818482223
H        10.67222314234513   -2.62810879522463   -2.66925852103937
C        11.58111761365852   -0.73163893446464   -2.57167307023402
H        12.46064791353359   -1.09724802971976   -3.09228765773010
C        11.42782651272223    0.64345622835444   -2.37539722039372
H        12.19349640711340    1.31902079804042   -2.74318643530462
C        10.19924319539187    1.16545659471313   -1.85387113720796
H        10.11229693273993    2.24727627972538   -1.97863348070976
C         9.59273873268539    0.73921299908162   -0.52650352409398
H        10.38807091993888    0.68455361430065    0.22359977817475
H         8.89666037859077    1.51835336931783   -0.21230104874456
C         6.53680624726035    0.77431665419516   -1.76291793853699
C         5.78368085510316    1.23355344165765   -2.84177985458759
H         5.96393249198154    0.81883390566039   -3.82323201784856
C         4.80279631293090    2.19008657466701   -2.65864720048944
H         4.22407715879197    2.53824651292859   -3.50064241014838
C         4.56301052265127    2.69819190516549   -1.39189354314239
H         3.80246644338814    3.44913690919786   -1.24518025025771
C         5.29270320695968    2.23085003924795   -0.31112204510918
H         5.09381696013111    2.61104141132005    0.67934855382649
C         6.27362278177097    1.27021593752060   -0.48916663067165
H         6.81109192817493    0.90034419460733    0.37094612584238
C         6.78481527722053   -2.02768413284263   -2.01197745707128
C         7.32746803582095   -3.24150128762131   -2.42846103131149
H         8.32216951132037   -3.27164602094066   -2.84827135853821
C         6.60336579864763   -4.41302921435245   -2.30729071347695
H         7.03636175793970   -5.34790792937602   -2.62959755777058
C         5.32421207541309   -4.38577784361268   -1.77590616073352
H         4.75745199575802   -5.29905702707788   -1.68378303998926
C         4.77429990987856   -3.18189596117606   -1.36797819649836
H         3.77746962674392   -3.15483607236536   -0.95530476279852
C         5.49517554899703   -2.00692434987909   -1.48607343545084
H         5.05143726040236   -1.07635389186409   -1.16643399253893
P         7.78259518599181   -0.50269169469422   -2.12670230845672
Rh        9.67983602415596   -0.09161422725738   -3.53371827124102

