63
CSD_code = SEJVEK | q = 0 | S = 0 | Stoichiometry = C27H32N2NiO | MND = 4
Ni        8.48725577876234   20.03581525102662    2.05945941000655
O         8.46347236000548   21.75496562206508    1.14488048797514
N        10.28829727042855   19.69818504312624    1.53695576152245
N         6.68515361890800   20.42189545525889    2.42438067904942
C         4.52153643819123   20.71822964939411    1.46970375261587
H         3.79508944460469   20.40888213798431    0.73436754222835
C         6.42305487518356   21.41230178252678    3.27467936867156
H         7.20154465114152   21.66201699917463    3.98583174829668
C        10.92130888457431   18.43437112228253    1.70034783437656
C        12.25554809846171   16.01344488067616    1.85762008799914
H        12.78826314934044   15.07491062786003    1.90707601623679
C         9.11540656662284   23.74141947492245    0.08617801644104
C         9.42006324337122   22.38445591068384    0.61142098689391
C        11.02963989097192   20.56699573696322    0.88292563603102
H        12.03497903821012   20.22985622695424    0.61710467786626
C         4.25170377781837   21.75572053105884    2.34784159759196
H         3.30737315794516   22.27823142318903    2.31396628327910
C        12.59854667695016   17.04820031720172    2.70518728887140
H        13.39419359843841   16.90551195915973    3.42095477469909
C        10.53422448578309   17.37415566781712    0.86694967660409
C         8.34936116759654   18.49731805204443    3.24210485016612
H         9.23075773430943   17.85774731798167    3.30052185531176
H         7.49966886197655   17.86203681984167    2.96552230673040
H         8.15528289168849   18.89233263567293    4.24886004830901
C        11.94041120097641   18.26925504487843    2.64453086301861
C        10.70088787995267   21.85144764571021    0.46243314498338
H        11.45769971698529   22.41556376731241   -0.05671458196970
C        12.29232967238473   19.37535909624834    3.61329010769984
H        11.60190226175321   20.20942708794407    3.45176801369850
C         5.74742530091044   20.07950792996747    1.54398649981534
H         5.98232249893011   19.25992580023264    0.87545733505378
C         7.81002786268698   24.01871482255490   -0.31513646311580
H         7.06773974161832   23.23662652983721   -0.24186216116209
C        10.07184190975582   24.74984235706346    0.01147622419047
H        11.08008702391095   24.56540655760367    0.35076765939215
C         5.22404876383056   22.10385275093462    3.27142898875109
H         5.05978914881400   22.90312188662827    3.97714356998578
C         9.72996794633174   25.99987633394484   -0.47082098081751
H        10.47800437797945   26.77812409276002   -0.52140789834257
C        11.21975015314344   16.17319582913683    0.95478489707446
H        10.95128832789191   15.35138983018573    0.30974354959781
C        12.10845483991125   18.90022902095442    5.05639700749637
H        11.09429950641718   18.53658939485312    5.20228892398444
H        12.28321718301649   19.72414440167580    5.74523444128287
H        12.80186827466599   18.09899825476781    5.29923910306296
C         7.47272632430354   25.26601504258565   -0.80322354231284
H         6.45882519859286   25.46619930171160   -1.11944649787423
C         8.43389184909263   26.26014741540102   -0.88489665417666
H         8.17275875406675   27.23730582499775   -1.26451668484413
C        13.71974977035454   19.87623463559689    3.38601967238368
H        13.83915585969825   20.24986205244267    2.37129397417986
H        14.43931187908100   19.07570238618169    3.54191325777071
H        13.94905437532688   20.68398256605909    4.07803249754894
C         8.54184493774340   16.31803831135537   -0.28650163799128
H         7.63897436077056   16.56206734956977   -0.84308178023215
H         8.25377219356487   15.91288025539159    0.68035522621615
H         9.07744253666992   15.55234581228593   -0.84282257195234
C         9.39341088453580   17.57251849565140   -0.10443703873871
H         8.73924531274896   18.36380103379553    0.31566885493370
C         9.93202039270699   18.05983291150910   -1.45174954883060
H        10.45785010291525   19.00474703520477   -1.33461618202544
H         9.11595114948988   18.20629797512644   -2.15655133061668
H        10.62332486519361   17.32902251506489   -1.86800894489194

