119
CSD_code = SEJVAG | q = 0 | S = 0 | Stoichiometry = C63H50BCuP4 | MND = 4
Cu       20.32528397079449    7.43269107002094    4.67903799544428
P        18.58769637814390    6.56500336591138    5.89310219426587
P        20.79726111133476    8.92325449872659    6.34836045636967
P        21.76625323576370    5.90135745498771    5.57462564785473
P        20.20418375757601    7.94161346320793    2.56625199556535
C        19.61346480782877    6.54854026290279    7.31955974000790
C        20.66680190450179    7.63027844342662    7.53020636138860
C        21.09520694212569    6.20493376374826    7.16961547063254
C        20.57228603739396    6.13009702514563   10.10594992059669
C        21.23957415760099    4.99053131262291   10.55973296293101
H        21.73901360623045    4.35306783846227    9.84247242986397
C        21.27291203159296    4.66577158557731   11.90293694060802
H        21.79634058948848    3.77806580087900   12.23053455322455
C        20.63780216887741    5.47511492467408   12.83005838639086
H        20.66324353226123    5.22273567851243   13.88066723701763
C        19.97026132016370    6.61079225784510   12.40192735228032
H        19.47269602313813    7.24715857682617   13.12078693074593
C        19.93951583512112    6.93214821390930   11.05826134407924
H        19.41675678806094    7.82164438509121   10.73310567297053
C        18.40559360273102    4.78485619953639    5.55490325467335
C        17.87107270076514    3.91439913715087    6.49915572417629
H        17.47502763038024    4.31302766466592    7.42398676764619
C        17.86414230488290    2.55573186389086    6.24847426762115
H        17.45113364870193    1.87574703485204    6.98008751925357
C        18.39304641126671    2.06047204579367    5.06551605003563
H        18.39127218901656    0.99620432786767    4.87941731247916
C        18.92650852215676    2.92463052720401    4.12442275368115
H        19.34367516642681    2.54050689077515    3.20424190638049
C        18.93154357224625    4.28518396250336    4.36902319417309
H        19.34365700999464    4.97539613037082    3.63892450362964
C        16.94401098379251    7.00843804534151    6.52871278351600
C        15.82633172418064    6.77036021409068    5.73348973978594
H        15.94339311963179    6.23249498103302    4.79985568598199
C        14.57984776483794    7.19775688669379    6.14575485018211
H        13.71053574848130    7.00372617155522    5.53275341449282
C        14.44302345309922    7.87829107151206    7.34616756094444
H        13.46781774105352    8.21763332737778    7.66437424087078
C        15.55360451127997    8.12025598860914    8.13730761354524
H        15.44569783807423    8.64786635617285    9.07411986941224
C        16.80302456037354    7.69076075841860    7.73102552648536
H        17.67547927745248    7.87445051315305    8.34212182860344
C        19.33398716080440    9.92932360148026    6.75312912077096
C        18.32287196976123   10.02861471279369    5.80436590236252
H        18.47405314350031    9.59438441998204    4.82054653288787
C        17.14051037274644   10.67517555928169    6.11261181004318
H        16.35447249102453   10.74305594016991    5.37383749697109
C        16.96755307747409   11.22563766106491    7.37118151292452
H        16.04313885689492   11.72800461565103    7.61684713944529
C        17.97579853482498   11.13188533210589    8.31942429080879
H        17.83379601522939   11.56303033161178    9.30043569192509
C        19.15748749070363   10.48308161286395    8.01696788068254
H        19.94810915691209   10.39192939824505    8.75041935886283
C        22.15988523401553    9.95837326395866    6.95961737241594
C        22.29818882303876   11.25222564340219    6.46432508880960
H        21.53642601494010   11.65322451909350    5.80584644440793
C        23.38545640110058   12.02070759021789    6.82969644606830
H        23.48744778548840   13.02902817548973    6.45282716562211
C        24.34872645147620   11.49783692839830    7.67920436675440
H        25.20224139496248   12.09823302914325    7.95938034472243
C        24.21577749294377   10.20981572629717    8.17023280375540
H        24.96483645857125    9.80405637802643    8.83493330435312
C        23.12689984922655    9.43757004595408    7.81098379056546
H        23.01557897427131    8.43151665214002    8.19074150795799
C        23.43366925651832    6.61673538797153    5.73430226691966
C        23.75095083252685    7.71929165543618    4.94913130097247
H        23.04185948432338    8.05862522736415    4.19977781354554
C        24.95680185258257    8.37273797072555    5.12145176720975
H        25.19517153236449    9.23399792773361    4.51340798794962
C        25.84982964786749    7.92329000302919    6.07934377252858
H        26.79158073324067    8.43394245563359    6.21941076183891
C        25.53833640835023    6.82157655911121    6.86257817057896
H        26.23888159181944    6.47687549750389    7.61000010711642
C        24.33241126712317    6.16818479819384    6.69653959604119
H        24.07153532930253    5.31571654576539    7.30977190064795
C        22.11049564973855    4.11698709722079    5.56883753797352
C        22.96947885739024    3.59826051847339    4.60373700178308
H        23.49334746766288    4.27601953176108    3.93973204518650
C        23.16513276704962    2.23456332841582    4.51223016166496
H        23.83977293913955    1.83275960080002    3.76891765942365
C        22.49396274471157    1.37927908588656    5.37303883118393
H        22.64363283915141    0.31195529916677    5.29638417787911
C        21.63491910021704    1.89194905674710    6.33066933341052
H        21.11364672866297    1.22521419254505    7.00259871490470
C        21.43844190766636    3.25677089213474    6.42889240857812
H        20.76770077466188    3.66494539602720    7.17218362381331
C        18.66651337370864    8.76899623863041    2.07523140715203
C        17.49915443243543    8.27335983081554    2.65271001867870
H        17.56647255687113    7.42645281827148    3.32894500379259
C        16.28303720758855    8.86921108770221    2.38434508247723
H        15.38192618269227    8.48706736234943    2.84122247388432
C        16.22783576490636    9.96786184327914    1.53998120224357
H        15.27937913757548   10.44079191781385    1.33165939611594
C        17.38743803497519   10.46738867308652    0.96924211663538
H        17.34040486266218   11.32649679166639    0.31575114643006
C        18.60976714378164    9.87565725563326    1.23574560221029
H        19.51669222080583   10.27039952918769    0.79812100773759
C        21.50770083154708    9.06700354138836    1.99765054807219
C        21.83043859441417   10.10891364475718    2.86502765706012
H        21.28165780633322   10.20491568255013    3.79702860757012
C        22.84852523927072   10.98635042790064    2.54989760495454
H        23.10106608549747   11.78713017147862    3.22938328039240
C        23.55397127359985   10.82378991497918    1.36706663625582
H        24.35539599951717   11.50419364548436    1.11930915014782
C        23.24033194306863    9.78494303855831    0.50557321201295
H        23.79578967928512    9.65894130827303   -0.41252364904289
C        22.22175307513173    8.90109719841177    0.81652385817628
H        21.98252557807040    8.08430398383516    0.14914097983223
C        20.32107424933392    6.52933948229540    1.43405613447596
C        21.24283238794973    5.54453877491853    1.78385751346347
H        21.84233643801050    5.68057715277174    2.67894464652619
C        21.36965284371291    4.40575873878337    1.01368261805737
H        22.07948563967392    3.64105719194964    1.29321502367195
C        20.57136650068008    4.24283683788796   -0.10848481264116
H        20.66306599459364    3.35088331307986   -0.71067623896660
C        19.64906448528867    5.21699852979985   -0.45533901815611
H        19.02579311158645    5.08379344054206   -1.32775655336717
C        19.51608640811576    6.36007932190830    0.31335922873545
H        18.79025539918454    7.11700171643774    0.04867226250025
B        20.52561297729306    6.48919040752524    8.60481457884697

