95
CSD_code = SEJWEL | q = 0 | S = 0 | Stoichiometry = C43H48NNiOP | MND = 4
Ni        8.04258445536320    2.77584605517645    4.52174008195963
P         6.99678006382901    4.23826965495467    5.70675094608280
O         9.50181520912544    2.98800998589885    5.76201204046374
N         9.10342603903380    1.67167143163674    3.33710759245795
C         8.77387493849593    2.57256691623585    1.11568764021859
C         6.79935793394926    2.26867681103261    7.61773212701066
H         7.54573597135188    1.78170379472818    6.99945258988007
C         6.45273171259548    2.33819245774693    3.65247667859412
C         5.58104394393366    5.21298148156742    5.10115798202766
C         5.84845522378558    2.98274072051083    2.57691987843402
H         6.30763028769183    3.85492230700179    2.13358678235258
C         5.79692543336821    1.24055715357855    4.21327949663507
H         6.22741502738150    0.71414779934851    5.06114058757906
C         8.13537175462334    5.52105620570727    6.32528317656682
C        11.44549156812087    2.62915358650339    7.06475963552311
C         8.30786455039044    0.21556234375052    1.52891749369573
C         4.36937994839598    4.54919630459016    4.92169161729442
H         4.29319294536272    3.50334835067907    5.18513905464990
C         5.35298462479158    4.15027754526625    8.00603818650366
H         4.96571660443624    5.11311606054909    7.70174578779985
C        10.57391265612167    2.32331188394877    5.83751975190106
C         5.68286547600032    6.55279497459948    4.74865741484192
H         6.61979142408255    7.07639842599329    4.87753036629759
C         7.98927022004899    0.07149274472321    0.18535676560432
H         7.68457057935787   -0.89371551582671   -0.18960375886963
C         4.58921512243930    0.79306659355520    3.70158835286349
H         4.09617417721187   -0.05664151749244    4.15500866952139
C         8.22635706592698    5.90151128414153    7.65719509357975
H         7.58386203895077    5.44702160245076    8.39804031602636
C         6.31251366138820    3.51082336401240    7.22701773332051
C        10.74026011686109    4.00400910946442    1.68327146457202
H        11.15836451936807    3.23762550192881    2.33104391103229
H        11.05725912946082    4.97638630633030    2.05619268279973
H        11.14471033765302    3.86789320153443    0.68148347876590
C         4.89417920997222    3.54837387401543    9.16367925530263
H         4.14975979178136    4.04577486081957    9.76859101130743
C         4.64855758763451    2.52579711509291    2.05703860148928
H         4.20315812139377    3.03663255410592    1.21475527256860
C        12.52177594231926    1.57835844717503    7.33268498581678
H        13.01001118033019    1.79617592019148    8.28104849834431
H        13.28409141719991    1.58333232434007    6.55741955846454
H        12.08743273140472    0.58272505443198    7.39322170706455
C         8.44924614913804    2.38507179779289   -0.21724365734733
H         8.50191582341239    3.21224931481199   -0.90757792596431
C        10.29021077035640    1.22496173307586    3.66559730473624
H        10.81614162020016    0.64170428771875    2.90411172360893
C         9.21085638682399    3.91926680918015    1.64994220679111
H         8.83717796313336    3.98910242471200    2.69609255722285
C         5.38612309526823    2.31133547491618    9.55039552474882
H         5.02260000074089    1.84680056430747   10.45530207440081
C        10.99293529154472    1.43355108226713    4.85342065285703
H        11.93709741946663    0.92709530236602    4.95024156408158
C         6.33951355143059    1.67040455276774    8.77654289046100
H         6.71954417470228    0.70469723830866    9.07704321225430
C         8.71300023232483    1.47255553290145    1.98877078243220
C         9.15080630078532    6.85916738180011    8.04011052651925
H         9.22193595055430    7.14853971367626    9.07866523149223
C         9.90601757079476    7.05689137007661    5.77181685246739
H        10.56759990865920    7.49840302564593    5.04034619210415
C         8.98852455483796    6.09798009277586    5.38786754243736
H         8.93318888322306    5.76956014797234    4.35720081930720
C         4.01349641467330    1.43269181911455    2.61779955224387
H         3.07265037936374    1.08275807260717    2.21737765347345
C         3.27547037210757    5.22039171272742    4.41219263404130
H         2.33996095645599    4.69794834991248    4.27729605217469
C         9.98701924010236    7.43986924676226    7.10198467988163
H        10.71005767222284    8.18177953930799    7.40745252918427
C         3.38047605248656    6.55936377334256    4.06910250398094
H         2.52602917317908    7.08437949223005    3.66810805535792
C         4.58374903682455    7.22229654055272    4.23861632818823
H         4.66892738901483    8.26564249107657    3.97089169239641
C         8.06516223422530    1.14085116307895   -0.68353368358023
H         7.82269676351908    1.00769198916123   -1.72790790925664
C         8.64918999726459    5.10511828305903    0.86767966551662
H         9.14057692214676    5.20284913859678   -0.09816153604234
H         8.81901513505128    6.02735616593620    1.42115649965939
H         7.57967703226579    4.99728742017989    0.70314278186333
C        12.10315819144119    3.99017522762768    6.79911425945576
H        12.71436513095161    4.28685640814784    7.64942908509676
H        11.34086997242657    4.74885050764061    6.63618012013557
H        12.73702809419355    3.94067272115177    5.91553528622343
C        10.53157117595027    2.73846081368430    8.29110166622528
H        10.09076534321589    1.77053191704515    8.52379168800487
H         9.72914799339074    3.44753979123779    8.09982527264300
H        11.09754528784035    3.07819685641494    9.15597378377355
C         8.20557204697601   -0.96787143079165    2.46385563213610
H         8.31014614036382   -0.60242408617085    3.49061647140860
C         6.84200000420248   -1.65179914523951    2.34618480515038
H         6.04533484504435   -0.91686255191270    2.42694107413901
H         6.72397227833885   -2.38440147379889    3.14232071476934
H         6.74249533626327   -2.16896170660894    1.39518905656790
C         9.32320196306442   -1.97766900693325    2.18761534840811
H         9.26402205722906   -2.33932315974593    1.16324981866683
H         9.23522333846376   -2.82884860425901    2.85993183631329
H        10.30231963945465   -1.52698119770705    2.33273999827405

