51
CSD_code = SEJWUB | q = 1 | S = 0 | Stoichiometry = C21H25N4Pd(1+) | MND = 4
Pd        6.99606599914615    3.15751906886984    7.75482955159127
C         8.50375755739599    0.04667785842904    7.17928729775862
C         7.33244299402084   -0.36987682898522    7.81862505574860
C         6.81638313794521    0.30377239263854    9.05987690877017
H         6.16584125999495   -0.37493501998477    9.60596332667605
H         6.21767630172376    1.19864546663616    8.78485564592575
H         7.63195996473025    0.60637104124531    9.71963919470048
C         6.63395213692165   -1.43918679976092    7.27885294803318
H         5.73014553203450   -1.77369623338916    7.76623982487735
C         7.06456083216936   -2.08995246487698    6.13048922196762
C         6.30545915595455   -3.25630986422577    5.58450080274599
H         6.46270406415772   -3.35714106065025    4.51402152527692
H         5.24105784083783   -3.15475529900167    5.78022087413938
H         6.64781405466187   -4.17423623770600    6.06254878110061
C         8.22327607667097   -1.64392541556893    5.51167661225308
H         8.56540270705747   -2.13214898941262    4.61154200764889
C         8.95503706568616   -0.57897751113625    6.01527162221492
C        10.18907345589955   -0.11784530115336    5.29967164918263
H        10.12190085983633   -0.36883554758474    4.24475728424490
H        11.07345712946194   -0.61291207879247    5.69965846136600
H        10.32883444885891    0.95714361613535    5.39143825774390
N         9.24853995245925    1.13661513250497    7.71360436874993
C         8.78711502548150    2.38885928959672    7.83584033058101
C        10.54225128075779    1.07106486970962    8.16558881777928
H        11.10428866776364    0.16077001058814    8.16512805052093
C        10.88172999014411    2.31310005592650    8.58665301756753
H        11.79666219172601    2.68046746032436    9.00309091454527
N         9.79046996616293    3.11194161321165    8.36714605990223
C         9.61963722691598    4.49487906989786    8.74944292228732
H         9.14868721720438    5.03097335383689    7.90643013860831
H        10.59105646562885    4.93990226353886    8.96908644421675
C         8.69824475020570    4.57965022717929    9.95231211730074
C         9.08931222280176    5.17945189315534   11.13963782218580
H        10.06836603742290    5.62270950811508   11.23018725210499
C         8.19916783455001    5.20474723692828   12.20316886236940
H         8.47665065091902    5.66961787154799   13.13623936754612
C         6.95446831132933    4.61674282494181   12.04621183613730
H         6.23708924939242    4.60747915123104   12.85042642019407
C         6.64468916653609    4.03580848053435   10.82660761341600
H         5.68303228887575    3.56166437285766   10.66180909472256
N         7.49289117321268    4.02348945886948    9.80491691523270
C         6.71836337841978    2.52686676441540    5.82197954640647
H         7.60388968333301    2.10873623028624    5.34044310419967
H         6.37551859127726    3.38772396651769    5.23440237327702
H         5.93075116077164    1.76302560402614    5.83113236535033
N         5.19916651980237    3.99787489266541    7.70780829585732
C         4.18544996999164    4.48839792589568    7.48459281077886
C         2.92229275765138    5.09349110880079    7.22155467731079
H         2.31687752946633    4.42224406639597    6.61209875443361
H         3.07005264520364    6.02955504328021    6.68281122009652
H         2.40208551944344    5.29645546148811    8.15768163235587

