63
CSD_code = SEJXIO | q = 0 | S = 0 | Stoichiometry = C26H30FeO4P2 | MND = 7
Fe        1.80688274217263    4.46652568591546    2.87451831885696
P         3.74778287779019    3.63906180921290    2.38853795507769
P         1.65152387911178    4.35787165149796    5.02550122320545
O         2.09876923934784    7.32997646799885    3.09596525716606
O         3.70534998156600    2.87407266569373    0.96468384854508
O         4.56823412017985    2.49511662029847    3.19552982673437
O         5.03314353988384    4.65039933553305    2.21371789419226
C         2.04696997538214    6.17456291788416    3.04024248043761
C         1.24264043313276    4.75879639259867    0.88313983922527
C         0.09744244450169    4.62341209617133    1.70902138710027
C         0.00060460776264    3.47153663766429    2.50832964345921
C         1.04761060463892    2.52726680305688    2.44595776728024
C         4.86936135676536    2.30400658140130    0.38702115379800
C         5.39236206601994    2.70375828210864    4.32273739964906
C         4.87175382932607    5.89970344963857    1.57824462211599
C         3.16356317386308    4.62224465150633    6.02777632058189
C         4.08132793904159    5.55103381055536    5.54696768850414
C         5.23426813618980    5.83277668046801    6.25544278472610
C         5.48875151451346    5.17994600925971    7.45108380141323
C         4.58408150153308    4.24964776216873    7.93437061474112
C         3.42420601577050    3.97227478940169    7.23140018753989
C         0.56773550992492    5.59251368529178    5.84346821489994
C        -0.38234490969697    6.24159702879978    5.06443175374828
C        -1.23959573584428    7.16908063513795    5.62803851707524
C        -1.15134024253442    7.45924613523100    6.97907721720067
C        -0.20629969650427    6.81665435722251    7.76256545083559
C         0.64933180002344    5.88638405274602    7.20150130573480
C         1.01727147654602    2.81439483234833    5.77017503431794
C         1.78185515196185    1.66319867564461    5.58683700239538
C         1.33501073881556    0.44345298856501    6.05601900137195
C         0.10735385420511    0.35569368455855    6.69494619635407
C        -0.67026795294149    1.48988089527786    6.85434157386086
C        -0.22232581111299    2.71527510792882    6.39053402081465
H         1.41142325077662    2.21324335640474    1.47752844797584
H         0.99188785312561    1.70167240532873    3.14542821497686
H        -0.80671117126135    3.37199226043788    3.22974867471283
H        -0.64908662810800    5.40793812925587    1.77354729102472
H         1.55510141960401    3.92003895132743    0.27382385553284
H         1.34263598216224    5.70320205665303    0.35865696932106
H         4.97986306755197    1.26794237143063    0.71029714845318
H         4.74043016535181    2.33928707359215   -0.69545780884176
H         5.76318932914378    2.86301500467108    0.67024088932072
H         4.80835226647559    2.70200191810960    5.24524915572851
H         6.10287092463365    1.87565703331723    4.34371643970820
H         5.93443272306636    3.64581728955293    4.24730403326350
H         3.81156449728524    6.13626762274475    1.46530559343245
H         5.35575471897782    6.66310190393274    2.18992479262397
H         5.34005433715296    5.87316564936423    0.59235764581175
H         3.87972030211738    6.03977721329032    4.60388775650328
H         5.93785354892376    6.55949357469707    5.87613604969511
H         6.39008967728024    5.39559370351066    8.00553640671008
H         4.77960710288750    3.73921716266417    8.86656593817794
H         2.72543039593768    3.24133967838538    7.61544056378278
H        -0.42896414690081    6.01370969448229    4.00896481989083
H        -1.97389426973133    7.66945565734964    5.01347545558748
H        -1.81545135386123    8.18719967519659    7.42172178231135
H        -0.13451253185458    7.04341878218364    8.81670841060063
H         1.38421977137541    5.39038538079638    7.81949542744006
H         2.72491353325436    1.73811869256049    5.06249982352649
H         1.93725455719016   -0.44285521363188    5.91660009705173
H        -0.24565806340261   -0.59797817498128    7.05922648120402
H        -1.63299746636874    1.42082075395013    7.34028011936515
H        -0.83628795376787    3.59669721469420    6.51376422233114

