48
CSD_code = SEJXIQ | q = 1 | S = 0 | Stoichiometry = C20H23N4Pd(1+) | MND = 4
Pd       -0.11098810532873    6.20787365407397   10.78760856525671
C        -1.09161867008934    3.03881401109820    9.34954372192434
C        -1.16642413702271    1.76714977929386    9.91851184542689
C         0.06716225497921    1.03230391479923   10.34810603431527
H        -0.18026316643218    0.30372329198930   11.11506632480981
H         0.81624276748290    1.71445808652513   10.74628612831459
H         0.50708898232333    0.49234129627480    9.50987630734673
C        -2.41917134894404    1.19988068237847   10.09418778939970
H        -2.49139170476633    0.21604904591688   10.53278749036025
C        -3.57875816182220    1.86644324879755    9.72196354385231
C        -4.91545069520879    1.23268979897949    9.93583653170846
H        -5.67897253121744    1.71454152446948    9.33171576310631
H        -5.20324926273170    1.32091576879315   10.98329488797707
H        -4.88395332961308    0.17407645177856    9.68955776931378
C        -3.46989511565869    3.13648016975460    9.17069049239308
H        -4.36627040199943    3.66429414878964    8.88183484257823
C        -2.23938602842360    3.74429797357084    8.97574561573429
C        -2.15736274725392    5.11479484633954    8.36618213786309
H        -3.12802061953488    5.40635222014883    7.97519112536298
H        -1.43681220332212    5.13672027736064    7.54775655963222
H        -1.85431201455465    5.86747209304336    9.12415692114246
N         0.18249484501181    3.63300042780431    9.12125048605603
C         0.60309500546431    4.77894676456931    9.66177689389781
C         1.10760425302442    3.16467246775614    8.21891707019618
H         0.95834108561048    2.25963968254243    7.66767544435876
C         2.12831594623241    4.04945963782791    8.18596833614303
H         3.02243310164167    4.04814126533226    7.59908046208208
N         1.80311324106500    5.05320211414278    9.07104672068479
C         2.45072490522650    6.27234996542551    9.28589567092595
C         3.78270337332290    6.49031454144645    8.95553317095575
H         4.38486693657449    5.70081391503577    8.53698671144863
C         4.32121833816609    7.74275444980052    9.19913805061429
H         5.35271148819917    7.94496102597819    8.95759883264215
C         3.51909093829605    8.72575927352841    9.76036216923985
H         3.90698967371478    9.71031482989327    9.96226253787266
C         2.20147991764281    8.42002165824735   10.05866190909173
H         1.53812476184681    9.16132080832308   10.48780838121779
N         1.67223492901311    7.22430591203484    9.82088877747784
C        -1.29045313231967    5.00658807382579   11.97136234036442
H        -2.34850698320671    5.21271287563149   11.77589166375482
H        -1.05825369116230    5.28695902748875   13.00724830193467
H        -1.10865799983576    3.93812848766213   11.84777150657093
N        -0.77761071642264    7.75898238584701   11.80343756372446
C        -1.22124803606812    8.60034107154858   12.44687863816548
C        -1.77025744245320    9.64864971266138   13.23974922900616
H        -2.44462430726812    9.22540619750334   13.98476063699693
H        -2.32654864052914   10.33926401400280   12.60548644235949
H        -0.97117555163646   10.18951712996704   13.74716165439761

