66
CSD_code = SEJXEK | q = 0 | S = 0 | Stoichiometry = C27H32FeO4P2 | MND = 7
Fe       -0.96184828836516    2.75457816950789    2.78191332050951
P         0.70854366361003    1.83681975394629    3.75895939090873
P        -2.52294395711822    1.36372439854132    3.31833826223212
C        -0.96690284790359    2.11609618563374    1.17265255216593
O        -0.97421297132846    1.79582784357003    0.05871048574671
C        -1.11404725860500    3.96448890575430    4.49550917076547
C        -1.91112578973235    4.49019828578246    3.45024043737967
C        -1.30370364552481    4.73658084827285    2.20588712042926
C         0.08220277254848    4.41203530777284    2.10838893520618
C        -2.07262347667155    5.27468704478229    1.03284705400126
C         1.07929289299285   -0.36623439698355    5.34276883121016
O         0.38374021637864    0.81534911144889    4.97138511811394
C         2.97202500520648    2.49710984975221    5.03718011473025
O         1.76637450905832    2.90034896596824    4.41482265341144
C         2.20739664659781    1.32192963835500    1.67894466029839
O         1.73178657430497    0.86401910811866    2.92842107499207
C        -3.44706728850314    1.65463156010178    4.86384963622845
C        -2.75993029957209    1.50424433286629    6.06781987267464
C        -3.38081415445229    1.79948115844674    7.26614985348439
C        -4.68604969946696    2.26817422320488    7.27478665756957
C        -5.36326543286937    2.44665504262895    6.08056118637220
C        -4.74652968793099    2.14761015203334    4.87757690920996
C        -3.91205043476575    1.10859090959388    2.15077174830557
C        -4.11530728414440    2.05928309160466    1.15902881254613
C        -5.16218556657007    1.92761049064886    0.26459276103112
C        -6.01401004611550    0.83958467396198    0.35561072703800
C        -5.81723983751662   -0.11273629523656    1.34335976800159
C        -4.77284780802157    0.01870640575075    2.23981916435298
C        -2.01313853053660   -0.38414411753599    3.52489562934707
C        -1.06954661401137   -0.86207295799133    2.62082840498650
C        -0.63134556254088   -2.17092846309305    2.68442562707397
C        -1.13066574626519   -3.02137645646026    3.65828675756786
C        -2.07230431528176   -2.55553709047472    4.55994465993953
C        -2.51585831495091   -1.24525624542524    4.49461510026766
H         0.51352946136837    4.50285277413389    1.11589389130954
H         0.76080477714659    4.76829773233031    2.87463354742408
H        -2.98507299993447    4.61058181783004    3.56567244931230
H        -1.63764724348476    3.69769012167836    5.40550690111256
H        -0.16180403148140    4.43329461611295    4.70515986700592
H        -1.82074039572547    6.32682400794348    0.88776173902119
H        -3.14701459309308    5.20287409898361    1.19263170109726
H        -1.81086817009016    4.74210294982445    0.12058753735216
H         1.65304905997812   -0.76706651416540    4.50916937671382
H         0.32588978824114   -1.09715271729429    5.64266761555079
H         1.74523481937867   -0.16161181627319    6.18430789586215
H         3.69715047290624    3.30008494934922    4.89289622461820
H         3.36126871317351    1.57438588861245    4.59985639431466
H         2.81159809046173    2.34633829721660    6.10749668623451
H         2.51461794872417    0.44436871288653    1.10946495148008
H         3.05973393614044    1.99194555605049    1.81190609225940
H         1.41970958146154    1.85784633881663    1.14610220332826
H        -1.73547025028016    1.15937590312868    6.04240938163566
H        -2.84637564961626    1.67346237346812    8.19712274132928
H        -5.17070966251440    2.50187290717766    8.21161393982443
H        -6.37614511103421    2.82349519110034    6.08513618426116
H        -5.27710559702362    2.29330039261077    3.94647107711095
H        -3.43244194896634    2.89449363558360    1.10040248228557
H        -5.31251979138182    2.67045107791750   -0.50552314659637
H        -6.83043091164379    0.73093163026765   -0.34351028203615
H        -6.48149895673426   -0.96228642916689    1.41339235408980
H        -4.62200550284062   -0.72559958534982    3.00912455587406
H        -0.68121489543349   -0.18834439937040    1.86978202215455
H         0.10143193800017   -2.53061071160901    1.97668366646759
H        -0.78708075768966   -4.04409755972558    3.71447423490918
H        -2.46652382639652   -3.21640798424678    5.31926749445763
H        -3.25024571350970   -0.89407269068368    5.20624576209249

