54
CSD_code = SEJYEN | q = 0 | S = 0 | Stoichiometry = C24H24O5W | MND = 7
W         6.93286743185745    9.61046394376962    3.36341849420968
O         8.23982616570631   10.66055432538302    3.20727690039971
C         7.79068694659164    8.03220411355779    4.52830646787954
C         7.94706249589685    7.72778070132888    3.26500848404851
C         8.25487713530460    7.69679193914995    5.85401577878247
C         8.91723501500191    8.69209492330154    6.58422484789230
H         9.06571033196040    9.65507432858321    6.10573509195239
C         9.37049094158754    8.43551733930303    7.86151933530724
H         9.88977047624815    9.20440227052979    8.41585989504017
C         9.15465568252601    7.19338874782270    8.44244625788599
H         9.50224123067265    6.99666621899001    9.44599190213817
C         8.48900191087677    6.20768178907498    7.73277457145176
H         8.31931031285071    5.24072406797042    8.18490510995759
C         8.04329629361577    6.45047579307824    6.44662959556864
H         7.52023924367821    5.68195245656929    5.89615526307400
C         8.62840124889156    6.81091151008523    2.38228595558339
C         8.63868438157091    5.42880976185238    2.58694857597764
H         8.15101673964567    5.01916059130637    3.45893734766025
C         9.26454584460961    4.59652559913792    1.67792196445728
H         9.26684913606209    3.52837450207774    1.84282051799453
C         9.89315746169881    5.12310584011498    0.56121125482519
H        10.38264487797138    4.46725289032600   -0.14370761756478
C         9.89134347768544    6.49512231188011    0.35022767112966
H        10.38276961679468    6.90530687147581   -0.52036770682844
C         9.25662324129459    7.33256262474550    1.24403775973093
H         9.23097660062636    8.40929333873129    1.10193666554375
O         5.14321805795172    8.72289074317624    3.81745680669619
C         4.42745361680398    7.92602563587385    3.10934056154601
C         4.58414562653983    7.74854457045183    1.73878578997698
H         3.88419485683376    7.10836786239859    1.22482780576934
C         5.56207063163461    8.40260643204288    0.96737138160918
O         6.50359757427917    9.09430239919075    1.47216828899031
C         3.31840933719913    7.18715598468377    3.82366868928295
H         3.56727689053800    7.09897853866208    4.87892400315022
H         3.16455599876012    6.20146815428027    3.39400923027113
H         2.38927479090317    7.75017434337005    3.73826176043301
C         5.56088550368836    8.20985246785259   -0.53111310544002
H         6.24835880689584    8.91792829269175   -0.98638599157244
H         4.56381783678785    8.34700589737855   -0.94170194908257
H         5.89327941644999    7.19930889988685   -0.76640495595763
O         5.54424457089592   11.12098174451889    2.73672444060843
C         5.63249166486006   12.31080704339134    3.16146411203645
C         6.09118183313010   12.67379769140966    4.43197861000389
H         6.12454032046774   13.72420223869469    4.67607172675012
C         6.48535481079815   11.75702489813192    5.41163532734097
O         6.51296361743425   10.49860228479885    5.26740395311611
C         5.16380284222258   13.41364623370911    2.23920409157542
H         4.67521467081380   12.98206010418729    1.36924288384303
H         6.02694359626200   13.98919387994512    1.91005019536404
H         4.48109234247184   14.08570769375426    2.75294110268054
C         6.87863101181145   12.29702363905721    6.76850342184202
H         6.97864161159226   11.47306792704181    7.47018302805476
H         6.14509353671075   13.01161994640567    7.13236136406910
H         7.83688038404176   12.80525565286912    6.68060704293920

