63
CSD_code = SEKBUF | q = 0 | S = 0 | Stoichiometry = C27H34PRh | MND = 8
Rh        8.20254503597256   14.70440661736550   11.45568856362029
P        10.20616820099678   14.27497305127753   12.41792404271603
C         6.95164645161341   13.77121219450918    9.66881097115221
C         6.08997481693399   14.35758926094107   10.66708484075535
C         6.20182840189369   13.59228057981131   11.87191930878543
C         7.26115903297764   12.67676896643283   11.68597644470321
C         7.70560690555911   12.77152322672308   10.29480078307831
C         4.90189298171540   15.20234799394329   10.32768382519209
C         5.28068439965252   13.70285118890750   13.04890863731621
C         8.56347565820242   11.76109840822733    9.59129393186241
C        11.56347818878220   15.52480659741736   12.48317849843808
C         8.22033082148154   16.69329041742101   12.25578408142944
C         8.76332994372506   16.71182983522200   10.94020079628382
C         7.98781900658011   17.28132134200450    9.86022149936334
C         6.72172576476952   17.86182208315626   10.09950464455457
C         6.16963760498858   17.84730404284575   11.44702003673442
C         6.90368819120878   17.24344335111963   12.49249253639489
C         6.05122772593313   18.44162954862271    9.01668321457795
C         8.52700824198564   17.31518345167681    8.56715847428909
C         6.37412723209228   17.23331200471602   13.78961579999522
C         4.42353804243160   18.38950426693873   13.04151444228776
C         4.93213064077971   18.41967646709901   11.76112925223576
C         6.91174151522496   14.09591912872880    8.20813171303010
C         7.56584681312853   11.51464415695289   12.58607497069593
C        11.21435373136371   12.85377898326658   11.81971410019196
C         5.14614508461018   17.78789506798006   14.06522377974522
C        10.11908441952104   13.85481379921357   14.20993699123160
C         7.84104265227796   17.88519713122566    7.52009191119121
C         6.59289606801308   18.45233216199697    7.74955506467418
H         8.89037770278213   16.74221286893678   13.11396887104303
H         9.84088716354510   16.77392836696151   10.80419660277185
H         4.54488142091297   15.75861442746567   11.19048580784793
H         5.12419097043586   15.90126466792249    9.52575852352176
H         4.09526671694858   14.54632863822921    9.99038477759082
H         5.06103930423452   14.74485015300121   13.27874348254204
H         4.33653401899257   13.19972471158087   12.82757916455421
H         5.71258507420299   13.24114569240614   13.93406612512540
H         9.15481088360519   11.18123718946384   10.29408525345356
H         7.92494886244848   11.06843452167316    9.03846968507971
H         9.23818836940537   12.23506651090565    8.88035438546964
H        12.38107452359567   15.15315658258292   13.09930541431804
H        11.93272550212967   15.70841039181498   11.47609821275261
H        11.20184209690663   16.46192953072631   12.89942839072657
H         5.08096733634021   18.89161388733345    9.15903408054634
H         9.49857574180633   16.86944366045072    8.40259120702717
H         6.94975132391119   16.76705570909911   14.57789338266516
H         3.46126909237361   18.83505459192992   13.24895927682906
H         4.34435678491709   18.89488233301437   10.99138974936304
H         6.90619858027278   15.17201085857436    8.04045036514182
H         7.76949770109012   13.67140600271634    7.69186990277937
H         6.00367355864306   13.68172455228543    7.76431352830997
H         6.95816429075353   10.65809246068665   12.28552796049980
H         8.61078284791294   11.21661942967736   12.53061205805477
H         7.32948827263699   11.74751454025852   13.62223265976320
H        10.66222419426742   11.92731897896445   11.95051836486954
H        11.42165360417519   12.98716183235721   10.75996264231540
H        12.15251789358341   12.79134019783031   12.36953485010162
H         4.74655386009001   17.76167194808101   15.06893558422492
H         9.71664969415800   14.70713742725741   14.75370133428139
H         9.44401254796242   13.01319994570220   14.34476916107412
H        11.10207836654155   13.60162197075746   14.60437186906100
H         8.26689553908528   17.89391510006909    6.52701837477216
H         6.04600258491275   18.90365499356510    6.93426579497071

