60
CSD_code = SEKCOC | q = 0 | S = 0 | Stoichiometry = C20H34Cl2NOPPd | MND = 4
Pd       -0.06562823378931   11.25099145288798    0.73059233535160
Cl        1.77895136295072   11.77662670395668   -0.41845709311977
Cl       -0.95275637599387   10.33703436400872   -1.14574450018012
P         0.79894590595694   11.92288920436572    2.66145492114641
O        -0.48214657436462   11.62961054908449    3.69635096819666
N        -1.70467061643360   10.90232889305421    1.91578700898408
C        -2.89491762955494   10.48330728557190    1.28603744992489
C        -3.03914933433154    9.12830918127222    0.96923094458347
C        -4.20480446674243    8.73071860935621    0.33217042923821
H        -4.35417047457846    7.69222040425981    0.08609839254788
C        -5.17013886411844    9.65642626237296   -0.01474651466225
H        -6.06847688701837    9.33213001005219   -0.51843618454741
C        -4.97925405647210   11.00096799729324    0.24669248587990
H        -5.72492953290633   11.70997768203525   -0.07386424857809
C        -3.84195726246232   11.44319841000168    0.90496947912225
C        -3.56205740250605   12.91453033206825    1.13101103907131
H        -3.01769857860118   13.02724588085772    2.07718921460559
C        -2.66473096668138   13.43606051735443   -0.00076046254345
H        -1.69691777550706   12.89961314684162   -0.02840077812758
H        -2.46956888627428   14.49875619250774    0.13272807064661
H        -3.15315036875648   13.28523879715618   -0.96069343525860
C        -4.82938381161125   13.76303310377747    1.23097420480019
H        -5.31773213339202   13.85125147647466    0.26453004787402
H        -4.57317650080267   14.76593198192796    1.56649150296166
H        -5.53071241399068   13.33049294956382    1.94169188277614
C        -1.92841315416693    8.15812849013180    1.30459281110195
H        -0.97915956577632    8.72594978384071    1.29963716386958
C        -1.78463387373287    7.05475035135006    0.25877358805954
H        -2.62244553717607    6.36237916307522    0.28682099128602
H        -0.87384121369777    6.49011655707689    0.44646218161946
H        -1.71718366646189    7.49898675045844   -0.73057378547353
C        -2.13890477560738    7.55709325953013    2.69718048656079
H        -2.14962777826611    8.32967547308481    3.46386292695758
H        -1.34139263698200    6.85337590520072    2.92657309399406
H        -3.08777748933251    7.02531231844845    2.73496777757505
C        -1.62942100187130   11.17979175052106    3.15512472154668
C        -2.74545443354527   11.06291571276717    4.14796249921570
H        -3.03959614913560   12.05561833819661    4.48704850727908
H        -2.40279435612089   10.50576930934556    5.01793562846740
H        -3.60208737658982   10.56880475482922    3.69740952444299
C         1.23222166691603   13.65546146192298    3.13714645335859
H         2.20749885307710   13.84365757312136    2.67593244324040
C         1.30765436727237   13.86693400264200    4.64330454236047
H         1.52935967042465   14.91029198414752    4.86053504836399
H         2.08828895413172   13.25281467044195    5.08622475768481
H         0.35980940200951   13.61231992733810    5.11281244369851
C         0.19536724360279   14.55185705055341    2.46105927684137
H        -0.78943201615664   14.40082589191518    2.90452950991945
H         0.14209147894705   14.31250366581581    1.39347925635043
H         0.46076545479170   15.60170670377156    2.56771624117517
C         2.07005480028098   10.78179600477525    3.36943314152193
H         2.03874586880724   10.81810044729922    4.46514005868109
C         3.43936200093755   11.19021188771167    2.83781841301106
H         4.17743368758502   10.42503193225614    3.07053985791593
H         3.77285248135841   12.12821681842791    3.27646014546171
H         3.39068652373253   11.30671309443847    1.75400511072311
C         1.69083578041925    9.38346981106847    2.87730508803433
H         1.62803682454616    9.38213593880188    1.77601240468932
H         0.72944831896171    9.07196500146969    3.29090932932916
H         2.44168352480053    8.65392682612525    3.17576120044543

