31
CSD_code = SEKDIW | q = 0 | S = 0 | Stoichiometry = C14H9ClCrN2O2S2 | MND = 9
Cr        0.69768306909875   -0.62607492860855    3.29104526209260
Cl        1.76234094871614    2.39078819651963   11.70144530005349
S         3.03581776278624    0.11595216563772    3.83378081942191
S         2.43157189454791   -1.86117327149575    4.62497924409955
N         2.93086418400955    0.77253246589753    5.29547279442587
N         2.31557111441169   -1.27324325093653    6.11281940686664
C         2.53640811420240    0.01489758149940    6.30109408616744
C         2.36308403065774    0.59550385342501    7.62814527498658
C         2.59463860558964    1.95381572402359    7.83673462492401
H         2.92385283868478    2.56229663187110    7.00895870358644
C         2.41128386819004    2.50792704974586    9.08762437652265
H         2.59040631724947    3.55837495995366    9.25448946585889
C         1.99341225304533    1.70101729056378   10.13672888366667
C         1.75990135764733    0.34645646181420    9.94448912631602
H         1.43749795369019   -0.26742117315214   10.77068950417256
C         1.94470068314700   -0.20243316461462    8.69163421868743
H         1.77312658837197   -1.25383333979148    8.52100106406104
C        -1.31407375993883   -0.82135641842814    4.25311913237875
H        -1.86399827064286   -1.72705661866483    4.45829504274997
C        -0.47321846212579   -0.14342127888268    5.14703390426356
H        -0.26290604032430   -0.43920881001267    6.16501026475004
C        -0.08022996052210    1.07278882139588    4.54943619170799
H         0.48690170185560    1.85477179728253    5.03376098504077
C        -0.67460024072671    1.15297324585965    3.28225395667080
H        -0.64983146007226    2.00449726559438    2.61976006757278
C        -1.43042767177954   -0.03027873377590    3.08031736886134
H        -2.11891959206062   -0.20759573906200    2.26566077942624
C         1.34957688918435   -0.47494815819518    1.60072294312971
O         1.72253515794109   -0.42579539084494    0.50833598954672
C         0.73024371218458   -2.20702242267028    2.39175624409703
O         0.74318641298224   -3.17903081194744    1.76780497389751

