185
CSD_code = SEKJUQ | q = 0 | S = 0 | Stoichiometry = C90H72F6FeN8O6S2 | MND = 6
Fe        0.17269581511887    4.47919249406793   12.08429372859648
N         1.73556636806536    4.86003405308310   10.99904317854299
N         3.46348867942644    4.54776374689361    9.67226046015092
C         2.42746075120537    3.97759837700856   10.31958853052845
H         2.19295102242680    2.93824740485959   10.26487508567613
C         2.35589311098114    6.05618180260780   10.80062735087417
H         2.02077146402220    6.94078929628168   11.29994535087856
C         3.42704500080013    5.87796916033756    9.97643839148646
H         4.12932185137953    6.58426181133306    9.58700227175195
C         4.40681528097652    3.80299964260373    8.84189882050968
C         3.57109016658057    2.84872980898584    7.98706420439944
C         3.89611092192538    1.51165931889438    7.81301675927820
H         4.76799635656598    1.09245433556051    8.29060896628644
C         3.09613036894079    0.69080769980510    7.03558517598900
H         3.35968061381238   -0.34997079570433    6.91938678325733
C         1.96070575411450    1.19179469277930    6.42651229737486
H         1.33095279875259    0.54465788789573    5.83552959327064
C         1.62885006765497    2.52499063113191    6.59504902900346
H         0.73758566532344    2.92635345034220    6.14044749432158
C         2.42707580243492    3.34623886704221    7.36698948749739
H         2.14500639496112    4.37959446936671    7.50086382817996
C         5.20791715913122    4.78702250652764    7.98956352705130
C         5.02613182971471    4.92156155173868    6.62124924948249
H         4.29521150011675    4.31556843676701    6.10905002102387
C         5.78843367826971    5.82452781696410    5.89739535587732
H         5.63562986292703    5.91417464227668    4.83214442364573
C         6.74055146695822    6.60322615934663    6.52904007944305
H         7.33315670754823    7.30556289956009    5.96226738455446
C         6.93464787764578    6.46943349094018    7.89407988178705
H         7.68033780607534    7.06664075189637    8.39745235376079
C         6.17856742826557    5.56613108589973    8.61663227424389
H         6.34742531942842    5.45657203398222    9.67842977747987
C         5.40172358597568    3.04190309912667    9.71417726098572
C         6.54086558089185    2.51281746081097    9.10970655587593
H         6.70259970005009    2.66707852922511    8.05241457016813
C         7.46432177672308    1.79726530275711    9.84771727176802
H         8.33876614098539    1.39107950891175    9.36137106055032
C         7.26875715457553    1.60402119877907   11.20546687886045
H         7.98791621301945    1.04390004907405   11.78391024514174
C         6.14923122573685    2.13933822759261   11.81413619556329
H         5.99111902568015    1.99997598961804   12.87274974269191
C         5.21975610811271    2.85488776183203   11.07599366239852
H         4.35968078346748    3.26906521474145   11.57950707922773
N        -1.05612116199363    5.07881734968479   10.69632124119968
N        -1.92470916592943    6.79473637747652    9.63446536736227
C        -0.80786172450804    6.23071123202939   10.11931298737909
H         0.16714362648784    6.65228240910924   10.03616354100937
C        -2.39250948651895    4.86384512335822   10.55164978140389
H        -2.84936873919196    3.95673675511533   10.88565391066422
C        -2.94450175160861    5.91999182393084    9.89256371977995
H        -3.95132137621371    6.11862985075265    9.58771363943726
C        -2.12312983505633    8.12372900679554    9.06561174787148
C        -2.93130313891076    7.88080038538632    7.79533068710644
C        -2.39068841929535    7.01124187162559    6.84927818751753
H        -1.42538370897695    6.56116940853037    7.03157253590336
C        -3.08147000747351    6.71162032989144    5.69095139585572
H        -2.64599514973272    6.03984533251685    4.96673638372844
C        -4.33108701703412    7.26527782935213    5.46405655602704
H        -4.87212827006405    7.03373595625976    4.55887516328970
C        -4.88730349461548    8.10375178911404    6.41226007546898
H        -5.86962464772481    8.52400773331602    6.25449796116242
C        -4.19579510272828    8.40597210686016    7.57487131180568
H        -4.65672461253715    9.04693332422189    8.31067655147518
C        -2.81584686078965    9.03154717341859   10.07885020784992
C        -3.04734106018650    8.63925051435977   11.38962800085518
H        -2.75234782745812    7.66142013876254   11.73535196107292
C        -3.63667133100234    9.51237625598970   12.28912456308847
H        -3.80285691241416    9.18709867399685   13.30458160671419
C        -3.99133923280328   10.78855317732033   11.89279793280243
H        -4.45344836524722   11.46751522878522   12.59359382470684
C        -3.72851360188205   11.20035826653036   10.59619663718663
H        -3.97748188488319   12.20393546412063   10.28427531201309
C        -3.13464000561598   10.33276639489377    9.69912158927463
H        -2.90387844188886   10.66753727158391    8.69783086467658
C        -0.77820368180814    8.80092813058098    8.80654596620839
C         0.04619640429236    9.06377851944084    9.89964480877031
H        -0.26395511223419    8.78059225719531   10.89402407270512
C         1.26616592461201    9.68913732888174    9.72640737603784
H         1.89201443314189    9.87152791345376   10.58643773285383
C         1.67089762178905   10.08719674693147    8.46265192282224
H         2.62232803203849   10.57896361498994    8.32522799581353
C         0.83959320055235    9.86673347337990    7.37987933570351
H         1.13511976258134   10.19279062706440    6.39347433994080
C        -0.37964366221215    9.22969375069111    7.54918652697335
H        -1.01738997920294    9.07754933960223    6.69152559754270
S        -0.45544978842707    2.26811691889568   10.16952040584017
F        -0.07515612000901   -0.32110521685006   10.71606443937456
F        -0.06679983998130    0.05157218657865    8.59355093261650
F         1.62557488234383    0.62428973107582    9.79940701015941
O         0.25138570283771    2.47839837182256   11.43281648665395
O        -0.03513922455696    3.08452880109282    9.07013031474016
O        -1.85467086066308    1.98547103874791   10.29815772195096
C         0.28372142327341    0.56434210397364    9.77616482931244
N        -1.39027144289784    4.09807513011162   13.16917307681098
N        -3.11953638287960    4.40972590702845   14.49435998796559
C        -2.08352341262304    4.98038324255268   13.84742152755716
H        -1.85000163102144    6.01999492927701   13.90155733273058
C        -2.00957281194398    2.90149191500829   13.36808974469874
H        -1.67329444407250    2.01679970609055   12.86973836930262
C        -3.08151963682368    3.07931167852501   14.19130864165592
H        -3.78342475441442    2.37264152309882   14.58072421565225
C        -4.06371224444406    5.15391389637654   15.32426708109137
C        -3.22882045285228    6.10796231520879   16.18014972014795
C        -3.55416385683009    7.44490675946401   16.35454244509905
H        -4.42571924671156    7.86420902106816   15.87643175041804
C        -2.75494059559801    8.26549519621475   17.13302756887274
H        -3.01874604205866    9.30617500547472   17.24953465973157
C        -1.61995020581323    7.76437380757397   17.74279868935341
H        -0.99080633612104    8.41129933379980   18.33465877943207
C        -1.28772915995875    6.43132149783709   17.57384053755948
H        -0.39677437075373    6.02987029657790   18.02897355694686
C        -2.08520431678807    5.61033002988899   16.80085724597071
H        -1.80287919243489    4.57707925377731   16.66671464462146
C        -4.86523362218961    4.16928871039901   16.17552076932600
C        -4.68480271398795    4.03440699263531   17.54397512465303
H        -3.95465034155862    4.64053912751839   18.05710952299496
C        -5.44748667597915    3.13089581406239   18.26675137497149
H        -5.29577225084526    3.04099215840230   19.33213811356223
C        -6.39863705120013    2.35201457822479   17.63387654449686
H        -6.99155916653528    1.64927411792936   18.19981961824504
C        -6.59137183849302    2.48614414423657   16.26867521219171
H        -7.33627462920152    1.88876811966652   15.76433705544676
C        -5.83490589135269    3.38997288224882   15.54719255071373
H        -6.00261682691296    3.49972401711054   14.48523282746337
C        -5.05832864266139    5.91506652679445   14.45172679484703
C        -6.19780569807810    6.44379999081162   15.05588779986574
H        -6.35990657835491    6.28926980703560   16.11308126956789
C        -7.12118548564237    7.15923766750723   14.31767295048075
H        -7.99591684504315    7.56510000879729   14.80377005543610
C        -6.92520605908311    7.35271933991442   12.96001350340429
H        -7.64429463610053    7.91276277047517   12.38141164288909
C        -5.80535588764521    6.81773537226003   12.35164645088953
H        -5.64693262565600    6.95729706187536   11.29310843639043
C        -4.87596628402423    6.10227559080422   13.08999509553734
H        -4.01567101262588    5.68826808337021   12.58671978560439
N         1.40177130798156    3.88009120947058   13.47209813141908
N         2.27174183835276    2.16543873145866   14.53483147579971
C         1.15432688146664    2.72858264821623   14.05021495859779
H         0.17951045778128    2.30676234814958   14.13440092885868
C         2.73816984139581    4.09571239395707   13.61570231781526
H         3.19452518221318    5.00268416082659   13.28067501085254
C         3.29101112033609    3.04034674350403   14.27526444100453
H         4.29813763957573    2.84236033272549   14.57952220889614
C         2.47153349443550    0.83700134526519   15.10449343526194
C         3.28139801008198    1.08155989431521   16.37339126397539
C         2.74139759190546    1.95128490814417   17.31963416120828
H         1.77527772211805    2.40011344168967   17.13858451960244
C         3.43381299988810    2.25272791077147   18.47649930307021
H         2.99879475436758    2.92460548770142   19.20089883991943
C         4.68448952220182    1.70076099471252   18.70171274444665
H         5.22680573283055    1.93371891675966   19.60576902246151
C         5.24003723003781    0.86210625439198   17.75328902916368
H         6.22313021645857    0.44314886760930   17.90971568915393
C         4.54689030547222    0.55806098527838   16.59214120176944
H         5.00734799341012   -0.08292161277740   15.85604960881806
C         3.16338888544798   -0.07115180222356   14.09095004404029
C         3.39191595793861    0.32006738165188   12.77931303774604
H         3.09500086868408    1.29716177999676   12.43311174733035
C         3.98061136008110   -0.55326415120003   11.87961569288070
H         4.14454027930645   -0.22881780883378   10.86352468222590
C         4.33761445320452   -1.82858224302434   12.27660233291961
H         4.79944049937722   -2.50763186955357   11.57569313105535
C         4.07769296919702   -2.23937795976202   13.57410601650303
H         4.32856385347996   -3.24230864953838   13.88661287069477
C         3.48442838200209   -1.37160417833536   14.47139628659084
H         3.25587824853479   -1.70564134411611   15.47343952144250
C         1.12745191268679    0.15914669940035   15.36604154800505
C         0.30142412290066   -0.10490195260793   14.27447469317269
H         0.60973232403897    0.17783444661597   13.27940466662064
C        -0.91771501674424   -0.73125064443801   14.45009259071243
H        -1.54491441722205   -0.91454255568430   13.59124833525389
C        -1.31992534028696   -1.12916142727502   15.71471458680359
H        -2.27072946596536   -1.62158222025088   15.85398604102394
C        -0.48695894455682   -0.90749346593022   16.79596334795599
H        -0.78052664811327   -1.23331086838571   17.78301819599305
C         0.73140965295433   -0.26941948260548   16.62428266072784
H         1.37051537727873   -0.11638832336230   17.48076651053903
S         0.79940207140487    6.68944943965263   14.00052822847888
F         0.41971674813826    9.27939692684623   13.45634008801056
F         0.40837287272825    8.90404245289992   15.57834899495909
F        -1.28232447765405    8.33287357173345   14.36939550191644
O         0.09401368858957    6.47986138639777   12.73630287367513
O         0.37819222486228    5.87214655614208   15.09891060853580
O         2.19866324998557    6.97263144539444   13.87347573760444
C         0.05950316796314    8.39275750507546   14.39460435851079

