78
CSD_code = SEKKOK | q = 0 | S = 0 | Stoichiometry = C25H46INO2P2Pd | MND = 4
Pd        4.91707643090624   -1.55621590527706    4.15773612726831
I         2.65341729026538   -1.12249954866980    5.42987178031965
C         3.97685805619991   -3.21779947718540    3.61498240443792
C         3.57035398583593   -4.33501442783132    4.34396252666506
H         3.76804881668090   -4.40338287652734    5.40644464265282
C         2.87290813838267   -5.35631098154044    3.73199896205504
H         2.56424231416992   -6.23087136213283    4.28404797220195
C         2.55272848318909   -5.25780684141675    2.38061646460597
C         2.88354115454286   -4.11582297081232    1.65594513552899
H         2.58546478739041   -4.04260923114794    0.62090078035528
C         3.58536254265527   -3.10454897509947    2.27905665457110
H         3.81391537906394   -2.20310141533615    1.70460218208039
N         1.86458153186837   -6.32889747053179    1.73394594078821
O         1.59326533123769   -6.20200043396083    0.55364229735842
O         1.59954476287317   -7.31768964380598    2.39197210275324
P         6.99568566237739   -2.62150295616531    3.97906293560427
C         8.45003509126717   -1.47485464999635    3.85260790951871
H         9.32947936388815   -2.03311897172508    4.17608744208085
H         8.58459253176995   -1.23489548964964    2.79493400489310
C         8.36854996638400   -0.16180872611429    4.63021401855990
H         7.96916430798168   -0.33079761958698    5.63221808763088
H         9.38825082920820    0.21929051816081    4.75053130233840
C         7.53640450656764    0.89638097905752    3.90635785246683
H         7.73760441639534    0.82285834699883    2.83747751377241
H         7.84785467310433    1.88898181395262    4.22566275570022
P         5.70862598333942    0.70442365265237    4.18765049527955
C         7.47409011331214   -3.82497750978572    2.57477509491123
C         8.94817336342447   -4.22956453545758    2.60389071041603
H         9.22164910053537   -4.66104630703769    3.56368600876260
H         9.61058630737902   -3.39552810459050    2.38875081518020
H         9.11735011034496   -4.98844421618153    1.84091534255795
C         6.62098579861602   -5.09721851012309    2.56419161659756
H         6.66734314025814   -5.54776164015845    1.57330356920852
H         5.57847527232278   -4.88031205829124    2.77800354108568
H         6.98021443186478   -5.83513041521755    3.27285700881116
C         7.16475301005122   -3.07710764962694    1.27195736271017
H         7.44890261983421   -3.69290633179222    0.42007606899626
H         7.70305940723470   -2.13518553077325    1.18799921083730
H         6.09550387875298   -2.88221069458610    1.19916130959336
C         7.25610266963326   -3.40607635680535    5.70940809294679
C         6.30508648606716   -2.64016998776257    6.64155905852318
H         6.43602864275103   -2.97901104132252    7.66902422932276
H         5.25821205513439   -2.81697363985709    6.36196786054044
H         6.50336894071727   -1.56542611403651    6.61761410041585
C         8.67972535851834   -3.29195403377318    6.25956721973242
H         8.97643261548806   -2.26000653799620    6.42780902754061
H         9.40982497166716   -3.76886342834831    5.60928042458992
H         8.71723975560426   -3.80414413807289    7.22058842469225
C         6.85566183042646   -4.88192904400915    5.73182254253930
H         7.62343948142525   -5.50514345435524    5.28014430838754
H         5.91360014329870   -5.04588157401246    5.21668176269940
H         6.73612886981348   -5.20452602572408    6.76585362586207
C         5.04517925392703    1.32968871137968    2.51723819664597
C         5.63381020956436    0.39650174686358    1.44669733500592
H         5.64445833131161   -0.63818771730996    1.81690667693955
H         6.64455061945026    0.67514947480480    1.15489397576242
H         5.01893855907472    0.43232624313378    0.54781120022992
C         3.52955026144048    1.11328527877518    2.48615673424547
H         3.13181025576186    1.40862768986928    1.51520948923361
H         3.00921208918699    1.68440384949884    3.24825541233074
H         3.30091722584960    0.05187691062361    2.63537858236607
C         5.39222449103215    2.77776180323286    2.18670578212444
H         5.08156768097000    2.99714069607169    1.16523089343119
H         6.46404154112069    2.95634845641649    2.25595568987482
H         4.87564436696255    3.47120714921519    2.84462490205355
C         5.39789085667983    1.98583115784158    5.57186680350212
C         3.95803546543955    2.50032382053153    5.54538346634161
H         3.75796283369161    3.04825071356092    6.46554358552705
H         3.24250278259915    1.68554005961166    5.49422634657436
H         3.79268338614044    3.18138646089688    4.71423735846152
C         6.33536520549336    3.19677175102634    5.57598346869372
H         6.38619424019142    3.68494354657739    4.60643641204011
H         7.34089889551123    2.93583258452449    5.90021908979826
H         5.94988963384486    3.92277117198493    6.29074002489511
C         5.60744276906007    1.19810556774723    6.87072534652623
H         5.36700069102319    1.82217051989410    7.72971048572685
H         6.64493221384771    0.87844983956435    6.97328004854632
H         4.95610142880736    0.32430605702598    6.90176406415160

