59
CSD_code = SEKKAW | q = 0 | S = 0 | Stoichiometry = C23H33NOW | MND = 10
C        -2.26050828522667    1.09732091110779   10.42712129646574
H        -1.80396241191834    2.07667808458295   10.46077078197451
C        -2.34806454409333    0.29105613859528    9.27091573849424
C        -3.17510915513575   -0.83564410284702    9.59222243346304
C        -3.62636730370979   -0.66404410995409   10.95120918592099
C        -3.02161925610708    0.50475709557021   11.47052068007412
C        -1.79453734357805    0.63257091532909    7.91924177416732
H        -2.59570235439927    0.95616447216992    7.25204091213080
H        -1.30256995464385   -0.22778420051163    7.46579224171216
H        -1.06477136364508    1.43651213734612    8.00177578283683
C        -3.73756137888752   -1.78962071403145    8.57453089578749
H        -4.62009337248857   -1.35573524965498    8.09909690081119
H        -4.02587038982276   -2.73530864460398    9.02940709103655
H        -2.99886652756022   -1.99742433829436    7.80195132680468
C        -4.73286603515412   -1.41375973366720   11.63213902405299
H        -4.44633114542206   -1.74019781385371   12.63174996505800
H        -5.03480112910737   -2.28618203170217   11.05835689597903
H        -5.60099640292329   -0.75840029672038   11.73115270044788
C        -3.35996001474957    1.15283847190007   12.78206563364739
H        -4.32499455884916    1.66008794141919   12.70802003101279
H        -2.61357779519293    1.89800506792992   13.05703917193015
H        -3.43628441682758    0.41981907076207   13.58567059100520
C        -1.91374439563749   -3.06951546842687   11.51685747661755
H        -2.13458875175185   -3.04374645248565   12.59173315924952
H        -2.87960396810376   -3.23489924110095   11.02860352265176
C        -1.12716666076587   -4.36326064153258   11.24897627136113
C         0.35857122580754   -4.24771859555608   11.59791631450543
H         0.85769285453727   -5.19747847944539   11.41397613815615
H         0.49270503637162   -3.99508196147993   12.64688757429455
H         0.83713936336644   -3.48749673983056   10.98566336894637
C        -1.27043457975972   -4.76799740128466    9.77833922901289
H        -0.93473429276333   -3.97138293197558    9.12277712963455
H        -2.30986285178262   -4.98885555590657    9.54328438578251
H        -0.67921994050244   -5.65659663605705    9.56738862278016
C        -1.73080677308170   -5.48651527753984   12.11003032366851
H        -1.25259244599009   -6.43802994808779   11.88592599225811
H        -2.79705837724212   -5.58810991726623   11.91730409776728
H        -1.59338832381248   -5.27735009053166   13.16916626239220
C         1.19362842950498    2.43918939135030   10.21272783459971
H         0.49160323460896    3.05683880254307   10.75854567401327
C         1.99073788161855    3.01786352420251    9.24539664869332
H         1.89989996070899    4.07443917743931    9.03618468508862
C         2.90430254473771    2.24707930180008    8.54630623116297
H         3.52590318794289    2.69631002915370    7.78617421289986
C         3.01557639258117    0.89620660644405    8.83392343514985
H         3.72795412665387    0.28839656824845    8.29599342807368
C         2.21973324305930    0.31469300062607    9.80065181432012
H         2.32219730309003   -0.74161587983742    9.99658671713051
C         1.28111120629574    1.07408354132035   10.50700591482247
C         0.38522840601333    0.49947597665209   11.50606795296067
H        -0.14481574732738    1.25175077696985   12.09753353123838
C         0.62779543619474   -0.72571878845412   12.17667564952638
H         1.51949652165248   -1.32057948244182   11.99186285329396
C        -0.37549649561424   -1.19155074459144   13.03080614025851
H        -0.99746112930447   -0.45536687606674   13.54304971430526
H        -0.18606724525607   -2.08102143452656   13.61785773558884
N        -0.16417322309449   -1.73066764598988    9.67005456504106
O         0.47491425968577   -2.06363138056218    8.72096745644565
W        -1.25796027319878   -1.01244819664487   10.85130688149592

