37
CSD_code = SEKMAY | q = 0 | S = 0 | Stoichiometry = C15H15BClFeNO3 | MND = 8
Fe        8.43323541796118   13.38287068948600   10.27367288690198
C        10.14439776200274   14.23885691837916   11.37706228572200
C        10.59250494175587   13.16340784611518   10.56026797606843
C        10.38812429012064   13.52446558364445    9.21251496468950
C         9.77110790273248   14.79812320922184    9.19728484151706
C         9.64304352792141   15.24593249414636   10.53378687900510
C         6.76154014069169   13.79956283290722   10.14582681322870
O         5.62365513289162   13.99934344739792   10.13239573936761
C         7.84856819068614   12.37965061368747   11.56164091910883
O         7.43537878069510   11.86984436657580   12.50716176574409
B         7.67186898067089   12.35723401930854    8.79227184653154
Cl        7.56719242017671   13.25736454920739    7.31138188126832
N         7.32884968285450   11.01154661575617    8.75224719514708
C         6.82675207190001   10.29442136775588    7.58684343536231
C         7.48468255077508   10.16527634413077    9.88457411948590
C         8.75309769039811    9.94563116126867   10.40358215131062
C         8.94165330545383    9.13254599833265   11.50702023007490
C         7.84878501830389    8.51854330246855   12.10925150590828
O         7.91087503315440    7.70681185235631   13.19717961039725
C         9.15899657103727    7.50168951796523   13.81391778581864
C         6.57477666483160    8.72633329308198   11.57622295205252
C         6.39457098745433    9.53596810447237   10.47703123337553
H        10.26569975551251   14.30532562494796   12.44572464397116
H        11.14275021197105   12.30588647709890   10.91139135044739
H        10.71612691737090   12.97347800755908    8.34692129047040
H         9.57002924025160   15.38402737168391    8.31624615264227
H         9.30021601045534   16.21936608548381   10.84147225219348
H         5.80528826334740    9.94970837532917    7.75765600038186
H         7.45797798667854    9.42587524608771    7.38664013539785
H         6.83679403953555   10.95185066537262    6.72134972419734
H         9.59577914493866   10.42536979469371    9.93123632463003
H         9.94031581650069    8.99064489695002   11.88800906916141
H         8.96161518491487    6.86085690191907   14.67174283116405
H         9.59506889439782    8.44425544554159   14.15932755380796
H         9.86220343078553    6.99843019608869   13.14220227142969
H         5.73694125051893    8.24584733739267   12.05538313957615
H         5.40053678834902    9.70325344622044   10.09205824247262

