69
CSD_code = SEKMIF | q = 1 | S = 0 | Stoichiometry = C26H30CdN3O9(1+) | MND = 7
Cd       -0.05041681013437    0.68777118194901    3.84552470340765
O         0.75497055113951   -0.42316179179382    2.13591945301228
H         1.35748454746552    0.19275160918335    1.64322972135652
H         1.33079353918680   -1.03185182455367    2.62155209722917
O         2.53660610578155    0.85182097698783    4.18830686968573
O         1.65487924137480   -1.73389505133570    4.41895449918071
O        -1.19039452966819   -1.53761861903501    3.97559990777147
O        -2.12855231622717    0.76256148076496    2.49613947179105
O        -0.00011537655794    2.01063780088490    1.08264743041754
N         0.67292078250264    2.74758033831400    3.86242444494798
N         2.55979785786041    1.29193384501649    1.04847927081696
C        -0.25103180252200    3.68043576618759    3.78988099213282
H        -1.27817403444449    3.34498983767296    3.87538693566739
C         0.04251448622946    5.04079525263683    3.62348680069268
H        -0.76088984297905    5.75843909194523    3.57802138205282
C         1.35086923381934    5.42883612906263    3.51823641214179
H         1.62132728779284    6.46406040612208    3.37382281439966
C         2.36966330095690    4.46033297927539    3.61729093421202
C         3.73788498065194    4.79018636190229    3.54661988907820
H         4.01885666441474    5.82053437315508    3.39787260355474
C         4.68130514950270    3.81249552617959    3.67784304502695
H         5.73076967731187    4.05621057426031    3.62555997407739
C         4.31329924410699    2.47656580372865    3.89425983907430
H         5.09503890932810    1.74144401343744    3.99674194267577
C         2.98920527006243    2.11200185650946    3.97107845612592
C         1.97740080104757    3.10786103701424    3.80897518816940
C         3.44718019322454   -0.15786768682770    4.59353032308806
H         4.18287517989163    0.24081846064782    5.29981098593878
H         3.96376708571819   -0.56334730353206    3.71344130055923
C         2.65393043750898   -1.25485500691614    5.30029625457596
H         3.33298482546572   -2.06980589403304    5.58720800034808
H         2.18366214387639   -0.83451552001695    6.19581351915809
C         0.69751635636420   -2.57220122697775    5.04673844902447
H         0.34791139951601   -2.10884026684817    5.97639087183346
H         1.14582482267888   -3.54920258645306    5.27305565790701
C        -0.48074189537865   -2.75945015008971    4.09993601463803
H        -0.11669714024662   -3.08333545061247    3.11416323609244
H        -1.14864866377402   -3.53202789624243    4.50562319221096
C        -2.25575345254512   -1.62882162501955    3.04458875737598
H        -2.97293356273074   -2.39372276505818    3.37357546156858
H        -1.86237697912683   -1.90966440110942    2.05671389905632
C        -2.96208929304321   -0.27439331792147    2.97897108619640
H        -3.86341123138132   -0.35989294521870    2.36044248317464
H        -3.23877569268960    0.02957077516703    3.99238304719672
C        -2.07412484397137    0.87702047242648    1.08456856080513
H        -3.09253802545188    0.90221371216588    0.67428942043029
H        -1.51622961411931    0.04520369044723    0.63825598593580
C        -1.36503005655205    2.18588356627960    0.75449705712436
H        -1.47149680147575    2.41192585069661   -0.31362751277579
H        -1.81054980173885    2.99175858372044    1.35049149984976
C         0.89186915925340    2.97424279829779    0.73123269398280
C         0.57154661063407    4.26230821587920    0.37553652327407
H        -0.45702440097052    4.58293092435084    0.33856275447192
C         1.57592631236072    5.18892235590876    0.05739947929805
H         1.28463883289718    6.19293316739082   -0.20906020314672
C         2.89474541954952    4.83547452915188    0.07174481239251
H         3.66500533757734    5.54571080860748   -0.18460680995756
C         3.26411631430201    3.51573622930579    0.39851374699324
C         4.59956970381962    3.06298221590969    0.37756150615866
H         5.38592698809043    3.75650595417847    0.11954307785208
C         4.87374829115328    1.75247964939383    0.66266188338302
H         5.88038598412425    1.36790508774435    0.63315218761130
C         3.80800143275598    0.90410057790584    0.99407082984174
H         3.98896453767365   -0.14055919819254    1.21388086893789
C         2.26112670898854    2.57228292706258    0.74229756752795
N        -0.98420232717725    0.76220822549539    6.12999477462660
O        -1.59991209676320    1.29798887324194    5.19454591918187
O         0.16640339785244    0.34384154457563    5.89583598482026
O        -1.46780451416529    0.65343508965264    7.21661977271965

