39
CSD_code = SEKNEC | q = 0 | S = 0 | Stoichiometry = C15H18ClN3OPt | MND = 4
Pt       11.42462129749150   19.28320342113872    1.42781700610171
C         8.69530160998987   18.16078133625601    1.02537938309961
H         8.36783889949874   19.18687905297364    0.91806407070533
C         7.78173982793237   17.10187095254994    0.95369402630284
H         6.73915999799318   17.32014266726397    0.78632794118343
C         8.22391840690123   15.81334037823773    1.09787771740195
H         7.54081012146598   14.97831308752488    1.04842067532389
C         9.59688805933015   15.56956048750307    1.31421707649905
C        10.15263778730349   14.28573333881855    1.47274798975626
H         9.50034265183046   13.42704481624355    1.43135911452423
C        11.50224121816993   14.13765227960099    1.67527506499936
H        11.91865691955495   13.14863057707493    1.79558430015063
C        12.36270492429078   15.23572437811378    1.73020970833567
H        13.42028511654963   15.10033410536794    1.88730477035558
C        11.86005361837011   16.51680302660885    1.58098133428380
C        10.45820046543086   16.69324994054936    1.37267360471046
C        13.88680484176617   17.86302109830464    1.73964839797292
C        14.30464364044517   19.34770591571387    1.49555896008261
H        14.51684762213282   19.39476059866863    0.42106433802612
C        15.56907070303853   19.68502412861741    2.28649960045970
H        16.10061775352558   18.74302705789900    2.44747756432057
H        15.27981747283190   20.06498634564270    3.27121368056282
C        16.53390570848063   20.67789012140029    1.62253326481820
H        17.32810145298215   20.86800756722149    2.35345371426131
C        15.87205002296621   22.01561122167491    1.29210507346904
H        15.16725069277212   21.91333288085002    0.46866047383724
H        16.62702170604292   22.73524154371528    0.98360595962926
H        15.35706068128291   22.42442741810178    2.15946981495104
C        17.18345670328989   20.08289154479645    0.37509669074357
H        16.45665021332550   19.93998652676428   -0.42144620994766
H        17.63335522231527   19.11990897636636    0.60233084757007
H        17.95967821665682   20.74731261595261    0.00291739891453
Cl       10.19626382948823   21.18916235900254    1.29093919306578
N         9.98379674493130   17.96727811924850    1.22759266620447
N        12.56527189776583   17.69486827814186    1.58133281002098
N        13.18396384956219   20.28027427105755    1.77233250301629
H        13.30878483813444   21.16149471676164    1.26982791125903
H        13.17552861928367   20.51111161877861    2.77172725851200
O        14.72165664487732   17.00961122949093    1.98142430451410

