36
CSD_code = SEKNAY | q = 0 | S = 0 | Stoichiometry = C14H16ClN3OPt | MND = 4
C         1.42614053007039    3.98539404767202   21.84200473388105
H         1.52191343130353    5.03877551097005   21.61132370328459
C         1.53524569989529    3.52448509901432   23.16002798465421
H         1.71689512700387    4.23558494625191   23.94992174577308
C         1.40979795529470    2.18620195586302   23.42368514423451
H         1.48890574825351    1.80403602206796   24.43065261147741
C         1.17370374679710    1.28772338826244   22.36120114708276
C         1.03703569700320   -0.10416078748581   22.52313616444327
H         1.11037030740762   -0.52253243540588   23.51518261869715
C         0.81695703702830   -0.90904142895892   21.43289870990610
H         0.71679677390867   -1.97566221810583   21.56840293233170
C         0.71563226184648   -0.38707958654712   20.14213571534572
H         0.54618559226701   -1.03301688612343   19.29611744699222
C         0.83494077804193    0.97682136614442   19.93720078187166
C         1.07090049227159    1.83170272019485   21.05698237495965
C         0.70818578222465    1.13420307673369   17.50519810006120
C         0.86275737576635    2.23338297976629   16.41841270796941
H         0.22619409307658    1.94970204588207   15.56839777553989
C         2.32806439021971    2.22323959458882   15.93073527253937
H         2.51601777486739    1.20418492827815   15.57652898047290
C         3.31442361561818    2.53764232867858   17.05480181925526
H         3.07388645782183    3.48730416715527   17.54831623890156
H         4.31973335411021    2.62155395523449   16.64902317112560
H         3.31820420693542    1.74342746430949   17.79825529096395
C         2.52887958934927    3.18586818127205   14.75847222559216
H         2.51960077576650    4.22410663957919   15.08706674470273
H         1.76126040644285    3.04693926303439   13.99969537855914
H         3.49522161746173    3.00185435283051   14.29636626737284
Cl        1.09091422545848    5.87619891036283   19.02723467485243
N         1.20182139961847    3.17354909438656   20.82779638047239
N         0.77318880574654    1.64857532595326   18.74286898851252
N         0.47880552370060    3.57192444027369   16.92523643214231
H        -0.53660859985867    3.68977184816938   16.86795278074250
H         0.90104075508952    4.30398702782254   16.34981206438082
O         0.59616913760072   -0.03722979943078   17.18815040867200
Pt        0.92921813459167    3.59678246131059   18.93180448223526

