90
CSD_code = SEKPEG | q = 0 | S = 0 | Stoichiometry = C42H39IrO6P2 | MND = 6
Ir        4.43080189502596    1.94292248965725    3.19367670963683
P         6.26623897556882    2.78132526955463    4.37541483751516
P         2.64481123231639    1.12630732559495    1.92290443138553
C         1.54090437102613   -0.12947563004165    2.62909134142413
C         3.11678262037291    0.55800053134167    0.26302691675922
C         5.99644180217806    3.76813625952126    5.87505480213793
C         7.28981867911797    1.43447265902208    5.08127301880208
C         1.42478719241963    2.44384319510570    1.55914620017068
C         7.46091846631906    3.67480213706064    3.33871549057240
O         3.00480694569901    3.00386326101307    4.24749099962762
O         4.35056175562755    4.73752355220683    3.99265296871017
C         3.89315227497866   -0.59178765534646    0.13130091280590
H         4.15433822852138   -1.14930983520290    1.01628570121480
C         5.44994926264229    5.14050999456334    8.21920170633250
H         5.23475412858265    5.67990629703485    9.13028350610401
C         5.07188020366827    3.25819625175685    6.78240500768937
H         4.56497305668124    2.33185884694531    6.54618601246601
C         0.07586065691404    2.14559907612529    1.39015603781530
H        -0.26409661556971    1.12217457380035    1.46213119744600
C         4.01231523260522   -0.24837009711054   -2.24273939985636
H         4.35995818043605   -0.56026377502085   -3.21713435586456
C         8.66091574805872    3.07919088923409    2.96049144391103
H         8.92282816136587    2.10141082875079    3.33875121898182
C         1.84485252086200    3.76646915999817    1.45305585295878
H         2.89052226915681    4.00652639023569    1.56936502606220
C         6.64782553451191    4.96303652902251    6.14492441662081
H         7.36384215628549    5.36042168933296    5.44025945886313
C         3.29214451025791    4.23994232561975    4.36214240260505
C         4.33156921170677   -0.99240325390808   -1.11749152391859
H         4.93141783644176   -1.88558022840501   -1.21426091548333
C         8.07622171946762   -0.83990183697792    5.00608084288526
H         8.08493800428413   -1.80734664217210    4.52548762583328
C         0.92944549661475    4.77211157247809    1.19779774783653
H         1.26570457417703    5.79610811886189    1.12544859313232
C         4.80051374293049    3.94514827105830    7.95038595847602
H         4.07986166866128    3.55256159508081    8.65348862463687
C         2.80614003377471    1.30768268800514   -0.86792994135962
H         2.21898667000491    2.21001493298072   -0.77576844800330
C         1.14779890441530   -1.27923693089293    1.95954516895878
H         1.50081280956800   -1.46869734411545    0.95624520662453
C         8.04447387791965    1.64141642878632    6.23242597565377
H         8.03799249525480    2.60827549970671    6.71547175202467
C         9.52115782345899    3.73556496500106    2.09777856888694
H        10.45202180540224    3.26734862332323    1.81139692091597
C        -0.83571238187505    3.15359719043602    1.13087985799352
H        -1.88067808173350    2.91050734015392    1.00239229613610
C         7.31849132171266    0.18559769473282    4.46829037852739
H         6.74898559327647    0.01855516553909    3.56711007737266
C         1.08981655941188    0.11189957604823    3.92399446050602
H         1.42026727423883    1.00758336702428    4.43332862504216
C         2.21445188653927    5.08156738644322    5.02428686640228
H         2.42378700419962    6.13457803498754    4.86499522919371
H         2.22173587617032    4.86809842683067    6.09068681456574
H         1.24205767689896    4.81698720773835    4.61878132262551
C        -0.41292652475687    4.46932971301121    1.03983914802656
H        -1.12816404253571    5.25536816444483    0.84555643370373
C         0.25228973632979   -0.79633706260843    4.54294187089155
H        -0.09518460033518   -0.61259441109294    5.54956202072003
C         6.37169198430518    5.64516333697582    7.31786400517315
H         6.87753396213935    6.57675359203237    7.52741767656522
C         3.25065592482350    0.90134027576807   -2.11430473653632
H         3.00334308472137    1.48769982170761   -2.98773528280579
C         8.80399442140021    0.61496912731368    6.76471831951450
H         9.38502058296235    0.78696714402347    7.65933998827506
C         9.19094471395015    4.98495029173864    1.60028098603973
H         9.86428876269764    5.49333809877464    0.92526120932150
C         0.30724185527681   -2.18406477026653    2.58572659647965
H         0.00234180808353   -3.08059310811466    2.06523751767124
C         7.12542336464597    4.92561441516336    2.82457163796484
H         6.17825360972528    5.36419856892457    3.09385530246229
C         8.81762519565916   -0.62951534668297    6.15685931023477
H         9.40533812916577   -1.43170279381647    6.57906935335039
C        -0.13957961949081   -1.94631039205201    3.87430614592568
H        -0.79075353664216   -2.65869566529053    4.35986647147368
C         7.99195493382673    5.57647923494434    1.96564533797420
H         7.72801907858355    6.54765056318140    1.57249958759112
O         4.22424331137544    0.57913557137090    4.73204998457168
O         4.93882732273025    3.07129223337054    1.44307841620833
O         4.05246049248790   -0.94088315040855    3.13766403156188
C         4.12850599396412   -0.62312649515630    4.31966231129998
C         4.10164742652864   -1.66847773885071    5.42189545671853
H         4.14019853700988   -2.66110496799392    4.98464649471887
H         3.18072484451361   -1.55183037859102    5.98769442722283
H         4.94462713289084   -1.51213298281237    6.08964100421856
O         5.89170020525932    1.17847095466334    1.82700022023171
C         5.75991045536222    2.18841659078937    1.09285664914426
C         6.55138105618950    2.32916494343008   -0.17549606939672
H         7.48034852584078    1.77317123975026   -0.09147975195057
H         6.74696917982175    3.37975378162923   -0.37023903657985
H         5.96425384295260    1.91787121220470   -0.99561498636905

