98
CSD_code = SEKPUV | q = 0 | S = 0 | Stoichiometry = C35H57Cl2N3Pd | MND = 4
Pd       -4.22473107127697   -4.59636631963381   18.03707367941545
Cl       -5.32103516423535   -4.87221404717562   16.02899634848583
C        -3.26331492735045   -4.39007638675622   19.81182712163251
Cl       -6.16317085234062   -4.62615405737831   19.20643841354411
N        -3.19287663061173   -3.20708846227534   20.41912387038094
C        -2.53267627140525   -3.08206533706287   21.71059957292616
H        -3.21861885518141   -3.38264503054437   22.51321225452386
H        -2.23814919731977   -2.04879479151720   21.88022620699081
C        -1.31830011292904   -3.99723987093310   21.71821568063082
H        -0.64771290553235   -3.72562176278028   20.89979453743938
H        -0.77512228768811   -3.91449106514926   22.65932527791838
C        -1.83162190550130   -5.41391645862833   21.52272941982321
H        -0.99744057015191   -6.10646065633916   21.38777618011583
H        -2.40049755197052   -5.71732027663012   22.40987181961228
N        -2.68006753682608   -5.46705781394263   20.34441098133476
C        -4.00023653233979   -2.10011272972208   19.90705956191258
H        -4.76375542237706   -2.58301082481752   19.27929446542905
C        -3.30623712632050   -1.04440539179581   19.00177232626054
C        -2.17979200172496   -0.36131573044565   19.79359234726042
H        -1.57819895876348    0.26216535376803   19.13191177663712
H        -1.49973642755206   -1.08743162915165   20.23414769303482
C        -2.93747067321945    0.48467376024035   20.83604847565871
H        -2.69275815805789    0.20721920992254   21.86232281088950
H        -2.71556777068769    1.54581832369811   20.72966536288266
C        -4.41114287702021    0.19525956865821   20.51478134756101
H        -5.09880923509171    0.93355756341017   20.92395029219833
C        -4.70550742418990   -1.23701558108145   20.97640170374066
H        -5.77456430352919   -1.44448676260838   20.99092587194449
H        -4.33613529742601   -1.40635430489154   21.98483860189940
C        -4.40186882256917    0.06042545411827   18.97987506650704
C        -5.74203895527263   -0.35868055884572   18.37183756430678
H        -6.21495228751063   -1.19575950484150   18.87168380969517
H        -5.60732877989054   -0.62703974923714   17.32596389196578
H        -6.43326160373894    0.48094687649862   18.41483795046911
C        -3.99523090583907    1.34396039439062   18.25187047102985
H        -4.03224114484369    1.18578141190318   17.17641316852772
H        -3.00191008119512    1.69352121340289   18.50781960786673
H        -4.70164545519134    2.13450391429887   18.49728052861075
C        -2.87266626571323   -1.58846206004921   17.65540842010337
H        -2.54738176786097   -0.77998523183012   17.00390165959707
H        -3.71193046082332   -2.10875626719475   17.17059133571707
H        -2.04052062259337   -2.28431664424751   17.77862844742523
C        -2.89307909411147   -6.74864766009951   19.68662625856997
H        -3.62670282463103   -6.50248549654531   18.90105236712467
C        -3.56127978980163   -7.92680377621644   20.43115649852367
C        -2.61337622078586   -8.57055578091022   21.46238313898417
H        -2.17968612688404   -7.84387561754227   22.14177197235345
H        -3.16908667676938   -9.27770562515254   22.07832443265614
C        -1.54412515224332   -9.27774433758388   20.60943096018816
H        -0.53525426573622   -8.93204574116876   20.83805244195524
H        -1.55851130101515  -10.35716982093623   20.75350334304554
C        -1.95966787259968   -8.90547376492658   19.18407926227955
H        -1.50222345600553   -9.52703641434569   18.41563990922193
C        -1.66834676129027   -7.40394306453291   19.01566853214921
H        -0.73001812493623   -7.13012456920314   19.49930795234471
H        -1.59131037835078   -7.10632356724356   17.96844435961570
C        -3.50270452363164   -8.96338418753423   19.26228587855698
C        -4.20418472464192   -8.54817836912226   17.96016110184409
H        -3.62499987386479   -7.85766811037880   17.34778125085274
H        -5.17155749685837   -8.09308795617916   18.17324991547186
H        -4.38589010974257   -9.43055394362349   17.34995116448787
C        -4.06227451175576  -10.33976527446597   19.62608361226079
H        -5.14832095865381  -10.31197310838591   19.57309662891607
H        -3.78412810312271  -10.67321731373727   20.61903280581589
H        -3.70773739767617  -11.07908055065804   18.91012270153671
C        -4.92192132857149   -7.57289943597773   20.99738844123715
H        -5.51840702123741   -7.02610615164834   20.26949407419044
H        -4.81159541690320   -6.93716556111810   21.87429893935382
H        -5.46266868159046   -8.46872112931032   21.29213839493139
C        -2.73134491409723   -4.74245808390159   16.86921901909757
N        -2.04834484075643   -4.93469421435136   15.94524703638363
C        -1.52542099916396   -5.13294812981272   14.66841557933453
H        -0.53945177191879   -5.59095880148417   14.80476828813010
C        -1.39207085066938   -3.81917665585381   13.85235527016017
C        -2.77077504071229   -3.13499803102948   13.87040618511658
H        -2.69283788262936   -2.10793464863411   13.51531249388604
H        -3.18826612272577   -3.10065606284123   14.87577299298836
C        -3.63429625750375   -4.01296642142410   12.94594912206805
H        -4.49963111705962   -4.40481264287383   13.47773940522454
H        -3.99134499654266   -3.46579282752291   12.07479871808885
C        -2.66761902173030   -5.13173850494725   12.54559926722523
H        -2.98379203816384   -5.70054281735754   11.67300444184342
C        -2.46156950244953   -5.99958142688682   13.79379769323423
H        -2.01341369385420   -6.96565816458772   13.56407182658255
H        -3.40766948169121   -6.17114456547991   14.30780747816622
C        -1.32312385042120   -4.38790552371302   12.40977793176731
C        -0.13340840632850   -5.30514899586112   12.11994895074864
H         0.79879028400317   -4.75080400874835   12.21111395954071
H        -0.20575472325576   -5.67006590474533   11.09726419146466
H        -0.08225046523630   -6.16878617376354   12.77356644563722
C        -1.31339227546675   -3.31531096456252   11.31996518489453
H        -0.33047527982774   -2.85133434603130   11.26496267611425
H        -2.04633016784181   -2.53558561083627   11.48669355582083
H        -1.52278539153130   -3.77583490880568   10.35652955419731
C        -0.25642370151264   -2.93370549517351   14.32683667745840
H        -0.43966713955103   -2.61037076214631   15.35035148008635
H        -0.17802795834762   -2.05032315774174   13.69804547815103
H         0.69308100201892   -3.46511355708179   14.29770683456483

