72
CSD_code = SEKPIK | q = 0 | S = 0 | Stoichiometry = C36H30Cl3IrP2 | MND = 5
Ir       -1.68923996879529    7.32009348538936    3.52004042812832
P         0.57812192633804    7.63096540633605    3.25487720408984
Cl       -1.32263482364758    7.58952495126131    5.80660834642520
C         0.97068409728971   11.30756974218165    4.99791876659598
H         1.33437550886591   11.72138296468878    5.92706220247956
C         1.31992324056181    7.38495654928162    1.61747477440719
C        -0.11160385446851   11.60020217030947    2.87318931987811
H        -0.59145611623036   12.23890388964096    2.14617353754775
C         0.63095988703491    9.41751221710166    3.55988248728830
C         0.37102313457662   12.13164940526295    4.05916778196355
H         0.27194595403603   13.18937011299963    4.25526429227807
C         1.53133600177499    5.80999359932465    5.13833675622041
H         0.52400125998924    5.41992285881205    5.14939912265389
C         0.00908652742527   10.24639435990532    2.62460029067410
H        -0.37718361694904    9.82175532984239    1.70641821835281
C         3.13933952413115    7.39927751047518    4.29953810347739
H         3.37716939812598    8.23615571698489    3.65615744540117
C         1.84129571768185    6.89558418020403    4.32954256608134
C         4.11472301648092    6.82951744116443    5.09458162971675
H         5.12073413704172    7.22314200136380    5.07755471169245
C         3.80251205975325    5.75358165478681    5.91223653206101
H         4.56808748775549    5.31239879812760    6.53348793181124
C         2.51543099269578    5.24391711475767    5.93068967225599
H         2.27475269827147    4.40336619671407    6.56396677593473
Cl       -1.68899616610808    5.04412799329815    3.52127724706095
C         1.09656251904315    9.95106837875432    4.75692854664061
H         1.54205850261278    9.30188718958907    5.49707849151517
C         2.67224792157852    8.04619192914488   -0.24696506440651
H         3.29139397656963    8.78257494782688   -0.73888193698277
C         2.12030640347937    8.33076630356417    0.98947745213419
H         2.30296515362404    9.28893716033646    1.45745063954133
C         2.42911055969996    6.82588725338878   -0.85517117059525
H         2.85835111911050    6.61334331523602   -1.82327426746426
C         1.07713284036729    6.15799900051950    1.00698562572672
H         0.43879605445528    5.43813713845901    1.50272954682776
C         1.63142354092781    5.88169989972328   -0.22805392686018
H         1.43653465760364    4.93349371861003   -0.70614591477006
P        -3.95620668371057    7.63048979794555    3.78679242052724
Cl       -2.05534636283369    7.58888672906269    1.23383970495317
C        -4.34880208010671   11.30726613300948    2.04393373143114
H        -4.71240277337438   11.72117197310067    1.11479701745104
C        -4.69823251057012    7.38467097724905    5.42409200093321
C        -3.26683352211479   11.59968279780681    4.16885260493004
H        -2.78718133519635   12.23831171305695    4.89606086030840
C        -4.00898092871172    9.41700362019250    3.48168331530930
C        -3.74941617493770   12.13127494795729    2.98292569197827
H        -3.65046617415003   13.18903790316857    2.78701655170459
C        -4.90952072510733    5.80946274336983    1.90322203818812
H        -3.90227218046218    5.41919570996131    1.89223917565326
C        -3.38733042239766   10.24581880838295    4.41717475321796
H        -3.00115322311681    9.82108879865009    5.33534902101581
C        -6.51726867571636    7.39909566407411    2.74184366272953
H        -6.75502772742363    8.23595742313845    3.38526817352490
C        -5.21932112909742    6.89513813737617    2.71198584361054
C        -7.49267972412976    6.82957888392862    1.94665278527857
H        -8.49861169173908    7.22341715422013    1.96358440988594
C        -7.18061065194350    5.75361357770490    1.12899179261975
H        -7.94620612949248    5.31265790553340    0.50761023269029
C        -5.89364900389821    5.24362532716751    1.11073458923343
H        -5.65309449128927    4.40303001519675    0.47746488785361
C        -4.47448405747364    9.95069646666885    2.28466444635413
H        -4.91983555239566    9.30159421345455    1.54435694739403
C        -6.05086243229060    8.04644397962010    7.28808620358908
H        -6.67002924882580    8.78300575727879    7.77969481778591
C        -5.49865227859082    8.33068405773632    6.05171118792723
H        -5.68104962766929    9.28878074596827    5.58348769890066
C        -5.80797337765272    6.82622756888796    7.89657627122168
H        -6.23751701667282    6.61388877960584    8.86458290257493
C        -4.45557206250695    6.15786171258029    6.03489592799409
H        -3.81712973739182    5.43787094244526    5.53947808170838
C        -5.01016834463697    5.88187496996816    7.26986208656206
H        -4.81548321503425    4.93374217938243    7.74818399723456

