78
CSD_code = SEKPOQ | q = 0 | S = 0 | Stoichiometry = C38H33Cl2O2P2Rh | MND = 6
P        -2.65215234087211    6.08144264642107   21.54730329770766
P        -4.96516620014079    4.56405711229619   23.57448070846476
Cl       -5.24424127396277    7.68069253980849   23.40444384779128
Cl       -1.50759803430445    5.07544804168706   24.12494330236597
C        -3.24507467239253    2.34031566155809   23.70447501822105
H        -2.50903868704253    2.96573918795116   23.22748441737499
O        -2.42225366382003    7.96281289333004   24.46237711366222
C        -6.03878852363629    4.30212145222345   22.11453011008925
C        -8.23573132157392    5.82954229409367   25.69973301544218
H        -9.21534004834426    6.23894757536253   25.50048805014534
C        -4.03755690172509    6.15188983451566   19.03593783987244
H        -3.72330075466068    5.13744544564469   18.84062196079737
O        -3.64157260232608    6.70839749814899   25.74090373059260
C        -2.21677307462964    4.39751825676412   21.01366329564534
C        -3.67700143738947    6.79175645724832   20.21453998065076
C        -0.89690710696435    3.96129967665252   21.08691936757320
H        -0.12580934880273    4.63845427174864   21.42192081841050
C        -1.10573145018679    6.98383825317324   21.18896166527858
C        -6.47085412504262    3.02778278733712   21.75362780685535
H        -6.16313279650641    2.16528073974554   22.32524567424574
C        -4.49127514305845    2.85885665970384   24.03176602292653
C        -0.36512927896124    7.64752890508324   22.15636091432073
H        -0.69757472014599    7.65715337099238   23.18194181097729
C        -5.71558625938196    4.79649730482165   26.21291332279633
H        -4.72582354748179    4.40250002095704   26.40223780896533
C        -5.42103603362910    2.04437217709559   24.67960322996883
H        -6.39550971172690    2.43675265499446   24.93722654911992
C        -2.88542656537690    2.20092578533346   20.28882469879501
H        -3.66536124010653    1.51769364187921   19.98584698200910
C        -7.41134210843859    5.48319709972615   24.64351901132962
H        -7.74110639513511    5.63087504567911   23.62548206835823
C        -6.43608493578433    5.39597844288553   21.34863945875169
H        -6.11167114986912    6.38800723122122   21.62545819670009
C        -7.24829828754840    5.21668774889311   20.24289385125492
H        -7.54459908636144    6.07457950948998   19.65803161288071
C        -3.20939192320549    3.50329590240613   20.62319525337107
H        -4.23813846723689    3.82694224066136   20.59259142029088
C         0.80448960699511    8.30092127965186   21.80218594472370
H         1.37805746419039    8.81518218467027   22.55900213031032
C        -2.93059677395850    1.02988231041186   24.02267831339070
H        -1.95564030046008    0.64227519038876   23.76788106143220
C        -1.56949791411315    1.77484786763040   20.35450658214621
H        -1.31757666757208    0.75583289467289   20.10055569221259
C        -7.28327202365068    2.85661993771153   20.64707725504814
H        -7.61102914320192    1.86347469028922   20.37620978538829
C        -5.10093483037340    0.73755723598810   24.99483735776154
H        -5.82664708802444    0.11603044185937   25.49903398491423
C        -7.67215503677498    3.94762867609074   19.88703822469631
H        -8.30224203074859    3.80681438969647   19.02128550695977
C        -0.66703041660174    6.98144333137548   19.86440955016621
H        -1.24368697413290    6.46341834418821   19.10978760528077
C        -7.80446684051971    5.66577472909825   27.00538910249578
H        -8.44841291277290    5.94779403375010   27.82574872056337
C        -2.89806492159525    7.71133031469473   25.59972094218795
C        -6.14969166003473    4.96049660049162   24.89861758709486
C        -0.57927705536106    2.65619007048825   20.75703395912275
H         0.44612007089216    2.32406924655963   20.82217197668685
C        -6.54389172858384    5.14868812576378   27.26072697601145
H        -6.20352105747636    5.02834885872387   28.27881090139359
C        -3.85483380412568    0.22630864438062   24.66633771583865
H        -3.60733798179414   -0.79457405559625   24.91753433320026
C        -4.05035393929390    8.11871035460174   20.41883559041863
H        -3.74854227660268    8.61617124299375   21.33084039518648
C         0.50005293048011    7.63301215089768   19.51929613160769
H         0.83602344536467    7.62622161921959   18.49252722376545
C        -4.79567509175679    6.82448555693707   18.09246308997456
H        -5.07656790453439    6.32102618673515   17.17867484302623
C        -2.56749426442381    8.58932208510866   26.77559847095104
H        -1.86278408453088    8.06175069753599   27.41610691050590
H        -3.47231553241646    8.78575728871242   27.34514006074447
H        -2.12199008188047    9.51730579129650   26.42885394034517
C        -4.80851219091615    8.78364927926224   19.47541533790495
H        -5.10340543893296    9.80791711531020   19.64613218075721
C        -5.19086457352139    8.13255161831343   18.31316350183485
H        -5.78910992570810    8.64732894148770   17.57562138777580
C         1.23881584211267    8.29473436452305   20.48889346027789
H         2.15170400275341    8.80394349808926   20.21670664995600
Rh       -3.43836167858916    6.26423049845731   23.67711638192831

