74
CSD_code = SEKQOO | q = 0 | S = 0 | Stoichiometry = C39H30NNiO2P | MND = 7
Ni       -0.70668501438359    1.90301719151183    6.15605625671114
P         0.69090574537533    2.91494744979031    4.87888144570606
O       -11.67740195481525    3.78750756881175   -5.19891480515841
O       -12.48594641653037    1.98060087763072   -4.35828693795267
N       -11.64927922677674    2.86247694969245   -4.40901003819586
C        -2.05775362055357    1.82448362101615    4.90814061676628
C        -2.93715390787467    1.79173269319258    4.06747763148313
C        -3.97152837956377    1.79338798610797    3.10792752897614
C        -3.92176644640620    2.67941724418631    2.02495517301321
C        -4.93771173447737    2.70937374337389    1.09884311463929
C        -6.04365143286701    1.85539317999120    1.20982592277754
C        -6.07392144051989    0.96106473136796    2.28944058925419
C        -5.06460689546912    0.92910134051369    3.22292478088667
C        -8.44941108980055    2.70225426963788   -1.66316481358245
C        -8.54195782397425    3.73651002240955   -2.60874466194767
C        -9.58196985979776    3.79679519248558   -3.50585083780100
C       -10.56350575500259    2.80896863773816   -3.48034337411382
C       -10.49333574537397    1.76767100873741   -2.55736497175818
C        -9.44995003416822    1.71822152953161   -1.66338122741841
C        -7.14557222142875    1.85112978176825    0.27823470584468
C        -7.33545063315185    2.70439763341537   -0.74577929378901
C        -0.55635370698118    0.16197215303547    7.36007534284171
C        -1.73780980170908    0.94051417442111    7.58690064719408
C        -1.34997481792781    2.19572701007024    8.15253716881805
C         0.03878127731701    2.24819403483911    8.11474515982544
C         0.53191137928645    0.98371442570638    7.62537008143474
C         0.31121104481738    4.57589700958365    4.23311918604806
C        -1.02503431869261    4.93771453797421    4.09963537731277
C        -1.36246751078331    6.16879193924148    3.56675934713007
C        -0.36875836420906    7.04924312336109    3.17126700034232
C         0.96386964066885    6.69939198873269    3.31765844402660
C         1.30746847715308    5.46855227746998    3.84713663149714
C         1.06338346663904    1.96635773749529    3.36577217458538
C         0.60489719338394    0.65500147718244    3.30246002629585
C         0.88767190954609   -0.13020526371712    2.20017539925454
C         1.62860771501195    0.39326425501467    1.15317171012883
C         2.08236971590845    1.70165440656684    1.20975293571759
C         1.80386448143412    2.48971674043385    2.31183236267558
C         2.33609812703103    3.14859326121817    5.62356675217751
C         3.36776905439132    2.24310675876653    5.40531200937842
C         4.57560453224652    2.40091556791378    6.06247671919440
C         4.75664680658088    3.45203840062278    6.94603383875720
C         3.72494527872782    4.34899443649892    7.17747542046240
C         2.51691134917715    4.19519409051167    6.52489162896504
H        -3.07206271282209    3.34060346299661    1.92917204725644
H        -4.87239452887895    3.40068335697100    0.27239483192831
H        -6.91505905002446    0.28898644222067    2.39106631693731
H        -5.10595742726539    0.23980637147091    4.05328381431195
H        -7.77967252716706    4.50160737021447   -2.62617073283344
H        -9.65675967063935    4.59232901694114   -4.23139086995738
H       -11.26507019193519    1.01299881079387   -2.56214472714056
H        -9.40484844738261    0.90381737881182   -0.95837720982546
H        -7.88269631440096    1.08121332752033    0.46650401027986
H        -6.61394890906733    3.49143280539605   -0.91883291336286
H        -0.53395796042746   -0.88356137558538    7.09740714704844
H        -2.74447396672430    0.54743872268831    7.58751663048722
H        -2.01789212789774    2.92777350619659    8.57709027347267
H         0.66438873660398    3.02243048553752    8.53469979407167
H         1.57286663188749    0.69373231922432    7.62577294078065
H        -1.78740741253474    4.24085588106166    4.42616842204718
H        -2.40190647840110    6.44317426178539    3.46426308743022
H        -0.63030706938233    8.01153312261055    2.75668716839294
H         1.74001620210681    7.38966050146250    3.02046981307492
H         2.35005751909846    5.21159807632811    3.97612102842674
H         0.01085043444564    0.27017621481263    4.12956205494421
H         0.52905959409600   -1.14766868763138    2.15500310896520
H         1.85005844498357   -0.21628144662178    0.28963334192780
H         2.65588914862201    2.10970900608707    0.39033207388308
H         2.15554572430081    3.51012967654946    2.34903916826230
H         3.22094575651965    1.41751836323793    4.72234299033529
H         5.37666571536895    1.69736658758450    5.88829270173609
H         5.69911454331323    3.56980629021106    7.45990576615577
H         3.86307512391481    5.16516064202402    7.87176780720878
H         1.70322217824202    4.88677231323704    6.70382794535321

