49
CSD_code = SEKQEG | q = 0 | S = 0 | Stoichiometry = C21H17Cl6N3NiO | MND = 6
Ni        8.14789718622806    6.26372257873907    9.38870099840380
Cl        6.63089514555540    4.87433732148137    9.40949167204470
Cl        9.63282646440519    4.77682574409795    9.56236132198928
Cl        6.88115516720857    2.10175321654224    5.44344101551170
Cl        5.89210936396907    6.62292665672582    2.72363029735358
Cl        5.47771824134960    7.52596064528001   15.82044910517884
Cl        6.49340596521716    2.68513721745994   13.73344182621100
O         6.54788058992129    7.80467170406275    9.22188070155657
H         6.00143100409399    7.31807879518723    8.58948573156799
H         6.10650228969046    7.70298631074907   10.07356056694109
N         8.46936649930840    6.62387000167669    7.12300193803920
N         9.50888225941363    7.61576386330483    9.35142813280182
N         8.29237175367248    6.93639833097026   11.61073911764746
C        10.10249691316723    7.83841894627707   13.01626428336192
H         9.74025105238250    7.14968357277457   13.77583805456459
H         9.95223377839642    8.85656038461132   13.37446567496634
H        11.16829711113370    7.67911823978493   12.86759846480122
C         9.36201847022762    7.62411293540296   11.73330034142931
C         9.91179977475676    8.18917397238770   10.49113290689312
C        10.81320365253451    9.25182951321132   10.48984237348536
H        11.11926821961510    9.70825150137152   11.41670055793024
C        11.29620074854654    9.72235383101597    9.28147189099296
H        11.98553643538856   10.55230009240431    9.25312238451661
C        10.89081227871096    9.10597262187735    8.11055807566756
H        11.25868944158938    9.44830827690362    7.15745462316206
C         9.98911014472606    8.04566528894495    8.17891130609278
C         9.52558454659851    7.32683282549605    6.98155922588515
C        10.33362961367199    7.41732801872668    5.72444616649399
H        11.39162569695473    7.29452227375246    5.94624001190415
H        10.19022107103696    8.38853531219998    5.25170163688613
H        10.02312954144116    6.64488205168531    5.02485889950763
C         7.85886922118102    5.90027083588548    6.11159559807134
C         7.72459329710079    4.51844167747146    6.25123628228434
H         8.15842626058583    4.02452022728031    7.10720328308846
C         7.03680607059688    3.80803024140814    5.28600745232159
C         6.46230685744497    4.43904363157673    4.18999631809104
H         5.92119835247668    3.87307071418368    3.45029260864805
C         6.59748366105220    5.81226431108414    4.07646505388660
C         7.29476419763738    6.55239567011240    5.01417448974009
H         7.37566893877843    7.62360851534212    4.91722132934480
C         7.60773854338079    6.35178499923132   12.66556032129089
C         7.00107462680194    7.14526363813357   13.64026753673663
H         7.10735475132130    8.21847543718769   13.61298175041951
C         6.23420969930125    6.54043764421669   14.61990191611393
C         6.06880595585616    5.16672273137327   14.66641603732965
H         5.47333718471890    4.70684218955031   15.43724351169021
C         6.68566956645125    4.39414287366811   13.69053674742263
C         7.44490636606322    4.96653685322373   12.68767308754224
H         7.91303602835600    4.36276576396703   11.92534737219173

