58
CSD_code = SEKQAA | q = 0 | S = 0 | Stoichiometry = C31H25NiP | MND = 7
Ni       -3.01722607313087    4.91592986015646    4.71690774032393
P        -2.14702414533715    5.63254346998475    2.90183248048261
C        -4.30888509288701    3.96749695725907    3.80776688609431
C        -5.08023495102568    3.34825348190035    3.10156367838039
C        -5.97127002496026    2.60664189109037    2.28869700992296
C        -7.25276414814605    2.27837317119074    2.73184209702914
C        -8.10173330060709    1.55081547856753    1.92009250088052
C        -7.68647057907187    1.14111130409848    0.66328018801505
C        -6.41459270677976    1.46509282025714    0.21728328523254
C        -5.55897197091744    2.19401235083128    1.01964682365248
C        -3.71115871640257    5.76381810355455    6.53169288214588
C        -3.57387429181847    4.33494660711550    6.55843336949791
C        -2.18813474323674    4.01402487608399    6.44449156570370
C        -1.51387709194781    5.20409856276984    6.18049701297981
C        -2.45798354869778    6.29169715479889    6.25176650271110
C        -3.05693011252544    6.95032362292969    2.03920085928930
C        -2.44086526182729    7.83644873116056    1.15997610832755
C        -3.19493533958334    8.79930588037219    0.51359905266085
C        -4.55989681879848    8.88383589903175    0.73849419955387
C        -5.17424652587187    8.00754919084193    1.61850450877140
C        -4.42490700703042    7.04536945032292    2.27067208610693
C        -0.47164400935214    6.33189549631223    3.05393403615259
C         0.66103672988676    5.58113722484865    2.76167517646919
C         1.91907509977042    6.11411361343447    2.98299725328521
C         2.05443319226395    7.39007934547634    3.50430661707918
C         0.92692620324023    8.13811789777952    3.80738476646515
C        -0.33082738404228    7.61000880525935    3.58968488772748
C        -1.93591554076149    4.35130961829036    1.62255659938082
C        -1.79109017292721    3.04055137401438    2.06809395843573
C        -1.61810650869085    2.01127985945891    1.16274976517480
C        -1.59799674782308    2.28530445333259   -0.19611862885809
C        -1.74862497435785    3.58762749263054   -0.64342370764162
C        -1.91477933518624    4.62265106661406    0.26085009437656
H        -7.57017154891459    2.59750959380028    3.71405092999930
H        -9.09335974488797    1.29840311280933    2.26892537673467
H        -8.35288523445965    0.57113955583745    0.03190382966452
H        -6.09026146748442    1.14856386402732   -0.76437720988298
H        -4.56635616593925    2.45330590516051    0.67901656160143
H        -4.61172952146003    6.31093514449524    6.76082238070326
H        -4.34427002734477    3.64875027325429    6.88026494998910
H        -1.75124401513165    3.03924224543546    6.59260394773143
H        -0.44234850887280    5.33080394803665    6.10830417653434
H        -2.18801469544772    7.33753316444085    6.24465244628405
H        -1.37374571545644    7.78007801914578    0.99122241283114
H        -2.71563826965991    9.48753189341820   -0.16765943148065
H        -5.14254655032512    9.63830558058627    0.23072721105657
H        -4.88175940203833    6.35298489903710    2.97093935759085
H         0.55347154522216    4.58229468969073    2.36186789352346
H         2.79731991242764    5.52886632484155    2.75205062483652
H         3.03768522764740    7.80082761609220    3.68002885508371
H         1.03149091405986    9.13156692812872    4.21913213660427
H        -1.21655994028786    8.18470790654296    3.82824175397677
H        -1.84450088881187    2.84502683124729    3.13551480501435
H        -1.51196608143540    0.99513915000332    1.51226601110830
H        -1.47538000779210    1.48185817537424   -0.90737950947845
H        -2.04411189802521    5.63447613128675   -0.09423794593775
H        -6.23661803380569    8.07709820698048    1.79875826089882
H        -1.74300398315645    3.79838572859863   -1.70297148074364

