35
CSD_code = SEKREF | q = 0 | S = 0 | Stoichiometry = C18H10MoN2O4 | MND = 6
Mo        2.94706666342607    2.75627659691607    1.02048633617109
C         3.59356539957899    3.52501962160123    2.70604018370404
O         3.94259665878857    3.93649301978138    3.71273338564731
C         1.65307230031447    1.69247364740490    2.00462396080240
O         0.88149524248884    1.07410120267501    2.58352293149900
C         4.21131644310369    1.29524067559690    1.22560029056565
O         4.96484400584919    0.43981738066909    1.34147014373278
C         2.29447178873419    1.95739632410768   -0.64884748389215
O         1.93448114490192    1.44416853037712   -1.60354296144916
N         4.15219025684241    4.02090622090565   -0.19584100822585
N         1.77815914612272    4.52586071754990    0.81812441612839
C         5.22322471921895    3.58787571857400   -0.85162507001851
C         5.69130014127911    4.19741390249809   -2.00170404039430
C         4.96451390882934    5.24949082841669   -2.53133967607571
C         3.86310583870371    5.74561438797346   -1.83461720857968
C         3.54298977309519    5.14360571481855   -0.61175424813464
C         2.42935527285396    5.55937131910454    0.25929526435690
C         2.14384602640904    6.88458076859587    0.60868204565304
C         1.03238636384542    7.11512892554782    1.41877373429393
C         0.26199139144155    6.04634785429953    1.84268844375671
C         0.69785150237611    4.76586906814086    1.55266684463533
C         3.02075913216998    8.03400808181379    0.32447626632927
C         3.28841544031981    8.55212104833590   -0.86662990588156
C         2.80220442093522    7.99550903071362   -2.12288379924851
C         3.03137898197443    6.75074341741452   -2.51924072594551
H         5.70483724901263    2.70551888167635   -0.44978261596401
H         6.56767056045641    3.81846802714966   -2.50253435653222
H         5.23331930933572    5.68664509326775   -3.48138665196000
H         0.78968712421984    8.12525334053655    1.71320220681724
H        -0.62323646910159    6.19986874536727    2.43869960683279
H         0.18162940468328    3.89717162914144    1.94103989060443
H         3.38356640535942    8.52689852486735    1.21849329459674
H         3.86364434438702    9.46595849715199   -0.94287975559405
H         2.26094577285553    8.67729352344980   -2.76634175872259
H         2.67135433518742    6.42098973355956   -3.48646797950957

