27
CSD_code = SEKRUV | q = 1 | S = 0 | Stoichiometry = C12H6N4O4Re(1+) | MND = 6
Re        0.06314243660637    9.41001958640551    7.66630674746173
C         1.86321772725707    9.29853403254550    6.83485670388883
O         2.88953236550160    9.27920957535742    6.36561426181372
C        -0.71203923774392    8.23261117515262    6.28318513635470
O        -1.16773114366859    7.59643377834695    5.46206267981966
C         0.44489721674010    7.86539261125510    8.83622812722210
O         0.68291788897931    7.00945703333845    9.54153893680312
C        -1.71359705704886    9.68460280412839    8.51057638072298
O        -2.71360210849063    9.88622324954908    8.99356078510672
N        -0.24202329755761   11.29714971840821    6.58386431806390
C        -0.78163118080561   11.47628195694102    5.37599219284009
C        -0.90974872879956   12.73734696968755    4.81736576734002
C        -0.45048546089342   13.81215652585234    5.57380873886170
N         0.08288165262028   13.63011661119315    6.76605282914774
C         0.17256017131887   12.40352301930231    7.23151232570328
C         0.77229277519058   12.21248001388821    8.56368855678532
N         0.85778460717608   10.94740775048773    9.01940850082338
C         1.40524182458384   10.78032355540390   10.22547098539398
C         1.86094834418872   11.85478004150612   10.97155453814967
C         1.72128718302153   13.11963417859667   10.40676233173970
N         1.18138244904472   13.27953798354670    9.21428188131167
H        -1.11580828751631   10.59057483001620    4.85007631137535
H        -1.34655176524929   12.86960595144844    3.84191155996308
H        -0.50610964198661   14.83495550958673    5.22898200044465
H         1.47804867613889    9.76554543591794   10.59650991225926
H         2.30093567245510   11.70775188457022   11.94344608732593
H         2.04265691893732   14.02164421756751   10.90798140327752

