96
CSD_code = SEKREG | q = 0 | S = 0 | Stoichiometry = C46H44O2P2RuS | MND = 8
Ru       12.05254991950668   13.27909358217180   10.56095407721852
P         9.96407720717906   13.38113410026331   11.48452330609020
P        11.80016724893137   11.37298206512766    9.34287766844900
S        12.83696052708736   11.89994830846273   12.49833740161358
O        15.25876411666030   12.89387805060768   12.15152619314521
O        14.76732566761591   11.82423337660309   14.08013754771531
C        13.51877265840117   14.96127593727883   10.97145876623552
H        14.09404756621576   15.14590002929217   11.86789666588052
C        12.28081986772031   15.54325147893083   10.64685821599148
H        11.74208415921880   16.26701108144557   11.24487024239336
C        11.95106881314812   15.16162146385326    9.31180301971542
H        11.14105258020060   15.58433134103618    8.72962371615171
C        13.01524420530201   14.36463401997334    8.81864668020239
H        13.12804314031272   14.01116910111542    7.80038458275507
C        13.97170048443966   14.21344294177201    9.84951083277804
H        14.95345497368261   13.77583363248974    9.74838263418813
C        14.48210498502990   12.30431228394583   12.86234672246396
C        16.05465378428534   12.13334473631787   14.60318355380355
H        16.80956852455592   11.97951687828187   13.82351944959568
H        16.20888114520858   11.41583626225311   15.41029924313643
C        16.12715236506646   13.57361026354990   15.11168057553785
H        16.01077073018164   14.23950133072990   14.25376582911929
H        17.12040704117370   13.73851369369376   15.53401624520936
C        15.05144435582698   13.89342160450833   16.15080475810656
H        15.02875627260370   14.97544207709982   16.30453621513094
H        14.07858654472412   13.58823283393729   15.75906139487710
C        15.29396143367905   13.20587261973452   17.48888159915430
H        14.54394315386497   13.51718017524047   18.21257228631035
H        16.27655064383207   13.46421950723904   17.87944645631028
H        15.23402982889027   12.12581027139533   17.38608441446765
C         9.87594724198411   14.39112451287404   13.00868168805116
C        11.03610959329011   14.66065312218903   13.72250651084116
H        11.98208755769608   14.28484622498850   13.35389853927390
C        10.98072820440716   15.38775003944797   14.89853827702051
H        11.88755732887382   15.59240717127862   15.44933496461139
C         9.76353422944944   15.84975917983741   15.36861433439844
H         9.71775551380326   16.42066679662051   16.28458595412495
C         8.59995889629557   15.57280661238158   14.66696830634107
H         7.64869590135281   15.92638742378631   15.03814922570309
C         8.65121532867972   14.84050301810367   13.49647880569715
H         7.74260016388817   14.61671465977513   12.95447217141859
C         8.83423367406007   14.26067320175146   10.35915605582249
C         8.66458648026665   15.64060912340193   10.40999028883927
H         9.14296025097127   16.21238573762321   11.19334685542731
C         7.88016266095507   16.28108552303556    9.46725564070006
H         7.75070301637876   17.35289151499743    9.51593331512499
C         7.26268922086677   15.55408953962379    8.46256010017730
H         6.64898378093510   16.05775388199751    7.73010739763044
C         7.43850870907734   14.18092556203447    8.39662381188426
H         6.96551334193217   13.60929636511680    7.61115658950338
C         8.22664195409719   13.54017909867892    9.33337590841766
H         8.38175748514240   12.47090703531032    9.27920430829762
C         8.92002940022896   12.01696645623866   12.12066942991346
C         7.53962284588958   11.95333941788391   11.95951371058777
H         7.02191407622018   12.68225787883123   11.35221533435955
C         6.81720952629654   10.94689371740711   12.57582497718877
H         5.74582888961009   10.90021669805818   12.44003379808306
C         7.45680532905882   10.01052146159077   13.37038084739800
H         6.88478207564641    9.23186339379236   13.85387457661443
C         8.82890158702597   10.07888385104467   13.54545284420676
H         9.33468746960934    9.35494893336224   14.16653048231602
C         9.55730780152348   11.07430309909981   12.92245462341792
H        10.62913507291156   11.12656192340705   13.04784821701259
C        10.73575210125090   11.36029242319068    7.85637134424704
C        10.32756317472293   12.56604344070046    7.30308773325872
H        10.59707469074889   13.48682079531189    7.80079057442993
C         9.57137579519644   12.59004075278481    6.14412612208207
H         9.26042177343617   13.53568980836749    5.72393836069807
C         9.21341324727082   11.40312573933109    5.52890963014269
H         8.62126817116071   11.41682256220703    4.62551286296633
C         9.61741191055494   10.19363942438336    6.07401103883672
H         9.34161873770147    9.26600076003198    5.59345504061663
C        10.37813830986780   10.16842926394626    7.22777399056502
H        10.69795502719590    9.22429202904255    7.64701773448494
C        11.23250740179616    9.84574728877711   10.16656762870086
C         9.86518758198101    9.58479739998121   10.21968952848761
H         9.17244651868774   10.26269169602587    9.73910692629295
C         9.39195075088679    8.46214306963642   10.87021571514143
H         8.33044857032757    8.26282156046193   10.89380101460776
C        10.27718895417342    7.60184425515464   11.49864042001306
H         9.90731554596968    6.72606787982082   12.01156836257539
C        11.63556240255752    7.86798610895555   11.46975692560983
H        12.32718923918930    7.20232640567368   11.96524780048211
C        12.11530830088590    8.98241567060632   10.80525596957995
H        13.17642052283162    9.17974770750101   10.77944627203971
C        13.40069491374108   10.86429025032299    8.61319667022686
C        13.57501584904170   10.51376628710898    7.27860004989334
H        12.73692938964237   10.51344914130007    6.59722842117381
C        14.83161500693650   10.17133473816370    6.80897351942848
H        14.95584014162642    9.90325214595836    5.76938819291191
C        15.92501724764526   10.17582639644526    7.65793071764481
H        16.90258627829345    9.90903537092861    7.28355756902794
C        15.76160139661155   10.53727469946070    8.98523247301965
H        16.61060084588464   10.56046841847184    9.65276687392146
C        14.51031544820380   10.88594625965743    9.45570171177192
H        14.38856620065775   11.20094302590921   10.48270462074326

