64
CSD_code = SEKROP | q = 0 | S = 0 | Stoichiometry = C26H28N5O2S2V | MND = 6
V         0.65253181593454    5.18692884437217    7.65355390720831
N         2.27844794051486    5.65303136345239    7.29298705233695
S         3.32356744940546    5.19942079824271    6.27406307033368
N         2.78915698437766    4.01169569304874    5.35699732076924
S         1.35921842024807    3.27604314352535    5.45129305752030
N         0.49288759852658    3.88464191881592    6.55651335387621
O        -0.03439083010124    6.41118073084230    6.53919488390868
C         0.08939253595914    7.63372767798786    6.96184528790461
C         0.29493002347545    7.71707257924449    8.37781120689432
O         0.33832948679196    6.58022454484744    8.99033406486816
C         0.32853763969195    8.97337448715201    8.99655243744924
C         0.21378359415754   10.12346708754489    8.23905358898873
C         0.04420178057021   10.01394783497418    6.85062682427359
C        -0.02976062381577    8.80416874677807    6.18692405015312
C         0.27716060921870   11.51587834470786    8.85244479093351
C         0.46950989713673   11.48395086433270   10.37102802316136
C        -1.03314932430680   12.25900949191310    8.55539433199181
C         1.45908995377530   12.28257800808333    8.24179902542713
C        -0.14490319670059    8.66964457481371    4.67572937250575
C        -1.42547644605404    7.89278115684948    4.33937537823621
C         1.07691099868129    7.89128621269405    4.16387642648145
C        -0.19273171043052   10.02305827725580    3.96198204130799
C         0.26872203924478    3.78990077047606   10.06490199728447
N         1.24697370769748    3.97900610083629    9.15744654795452
C         2.46852976131047    3.58723861735204    9.47693313023540
C         2.79653519271417    3.01720914715992   10.70629987001290
C         1.81533336348134    2.84832539936843   11.65772499927065
C         0.50262533301305    3.23690073457081   11.34480445826726
C        -0.58441721769081    3.10050501508570   12.25584257055997
C        -1.84145649611916    3.47978557235042   11.91733594289848
C        -2.11986999044644    4.01612172495160   10.62949833457651
C        -3.39929673445713    4.42504996716822   10.21552942429763
C        -3.56490744017791    4.92509176650308    8.94654087140792
C        -2.45492955455573    5.00286198399394    8.09407396307133
N        -1.25361779825195    4.63495255406801    8.46373614988317
C        -1.06290452933785    4.16255379410642    9.70103249377189
H         0.48596711290605    8.99787131065186   10.06297472703845
H        -0.02204721084172   10.92183606992877    6.27596665149016
H        -0.35294214855193   10.96499526964730   10.85750292114361
H         0.50105961080562   12.50201386511407   10.75537159592473
H         1.40403526897157   10.99492964192720   10.63455976664507
H        -1.87554613220167   11.71438417473663    8.97665192459328
H        -1.19635788346741   12.36349987263902    7.48667323670359
H        -1.00889545127290   13.25402950584206    8.99580989229577
H         1.33845578166185   12.41037426108908    7.17000636713543
H         2.38595592608606   11.74113377402346    8.41783378671170
H         1.54166092462024   13.26857196693572    8.69533496249552
H        -1.38709434152439    6.89838436971525    4.77819929974289
H        -1.53179697402094    7.79191159869650    3.26082926120828
H        -2.29726701010594    8.41674822949845    4.72787938650338
H         1.11795369242921    6.90150302212032    4.61874831180133
H         1.99343237771328    8.42392134080523    4.41242392906932
H         1.02397198450996    7.77281974903548    3.08320195173153
H         0.71059514034543   10.59768294015673    4.15277214771419
H        -1.05776724802066   10.60154557161509    4.27872788787987
H        -0.26942546162134    9.86238768954158    2.88831475099047
H         3.23539863856598    3.74095242487266    8.72511101101751
H         3.81606574636911    2.72337364315349   10.90164782450195
H         2.03596551553354    2.42545483581421   12.62654672764626
H        -0.37632006077338    2.68836727058978   13.23251696929392
H        -2.65765658676400    3.38147790746327   12.61824802788647
H        -4.23233165209370    4.34327299813388   10.89934197683373
H        -4.53218204696954    5.25363175603852    8.59926401773235
H        -2.54995174570730    5.37890941069871    7.08196043624885

