51
CSD_code = SEKSUY | q = 1 | S = 0 | Stoichiometry = C22H24AuN4(1+) | MND = 2
Au        3.16571334062825    6.74516803188351    9.78670311018396
N         3.23936269005270    8.93752831588071    7.70896113222497
N         3.97011935666458    9.98640860785435    7.22164835721659
N         1.38516516408485    4.58566749459302   10.92655668982043
N         1.27366474277408    3.63477560932088   11.90402045216112
C         3.85617053004256    8.28387698728034    8.68556608045933
C         5.11575298840355    8.93108431242394    8.82053304310252
C         6.21221624023722    8.70529577363864    9.65949246093036
H         6.18088857273483    7.90716430911313   10.38440895414458
C         7.30795197773152    9.52084394395965    9.52879291603269
H         8.16924517404726    9.37083414918591   10.16072279464754
C         7.33804556527315   10.55558246730307    8.58199640464621
H         8.22169282891805   11.17073417587872    8.51127653497518
C         6.27668313363152   10.80489813883046    7.74340379033339
H         6.30967740944146   11.60138899380230    7.01726031802049
C         5.15974630095281    9.98332366538460    7.87523373914355
C         3.65424123391025   10.69851971355286    6.00794053273567
H         4.20733555707998   10.25045187271637    5.17102997267556
H         3.99247119432064   11.73105717082920    6.12653558704371
C         2.15873584885513   10.64538268211861    5.72249273328209
H         1.61547271493384   11.26383602285354    6.43947895654611
H         1.97204584129608   11.04005947260517    4.72508095563096
C         1.69054710024636    9.19867468175032    5.83182821055935
H         2.26721147566230    8.56813071259957    5.15224883292319
H         0.63833767290706    9.11127465538668    5.56526331448769
C         1.88084154654850    8.73148624448993    7.26995611041762
H         1.65620886916698    7.66855383357926    7.37963398968775
H         1.20709760316292    9.29321775766587    7.92931160855358
C         2.55332775713120    5.21526768759705   10.94477593577317
C         3.28676492590537    4.59528201780808   11.99430272512310
C         4.57564693419464    4.79932389227184   12.49838335551506
H         5.20713220622171    5.56208993963144   12.07069892089285
C         4.99867954731827    4.00883678217440   13.53714829083183
H         5.98764513353482    4.14189921186850   13.94690381943965
C         4.16900976282148    3.01922827867799   14.08508919920736
H         4.54353714145109    2.41831575300993   14.89925979343052
C         2.89675872342290    2.79387301528965   13.61331270883280
H         2.26692259726423    2.02950882453879   14.03971616133059
C         2.46008992431831    3.59717692258282   12.56269300663555
C         0.23259899580309    2.63741561439594   11.94546013354499
H         0.04323194666774    2.39307425427323   12.99376228057778
H         0.58282350663199    1.72743373660956   11.43901843270432
C        -1.03355782582100    3.14717922082219   11.26868196874633
H        -1.50270615283372    3.92083381911336   11.87949106603052
H        -1.73827296348708    2.32363184743200   11.16528969905185
C        -0.66401048636760    3.72088649483217    9.90540129170298
H        -0.15200272207821    2.96349575824450    9.30853881963217
H        -1.55505335668225    4.03486390135199    9.36373437854316
C         0.24386718982272    4.92725402098803   10.11337332882412
H         0.61911542377766    5.31589385677972    9.16449387650282
H        -0.31869088272575    5.72681535323041   10.61189322454553

