51
CSD_code = SEKTIM | q = 1 | S = 0 | Stoichiometry = C21H21N6NiO2(1+) | MND = 6
Ni        1.48264708781780    4.61731219262488    3.57286313946138
O        -0.77123812624520    4.01329064315345    4.11707199227243
O        -0.21501524888402    5.82007843211447    3.01925143278459
N         1.51666528602743    5.40545316030266    5.20764516945871
N         2.07075115492325    2.92850918605377    4.59300476896976
N         2.25296404817745    1.62231081577534    4.47565293880399
N         0.80484160383869    2.77451444640724    1.40833442714861
N         1.41409172910946    3.84210683623550    1.90864461945190
N         2.83517927332768    5.99641446520515    2.49038814674235
C         1.26527442872261    6.69046631680703    5.42841184773889
H         1.09382398960415    7.30988307126041    4.55659220918677
C         1.18866610945209    7.22065099849390    6.70634692951864
H         0.97960052583828    8.26952668254005    6.83961879266979
C         1.37251529143178    6.38119206372553    7.79524742109980
H         1.30886904367221    6.76309303370036    8.80213787021016
C         1.63089795967687    5.04181748681817    7.56688846695662
H         1.77401163265702    4.35193629626822    8.38241905268231
C         1.69720699269026    4.57955299249004    6.25626558627633
C         1.94483280453871    3.19723398329916    5.89859608420110
C         2.05793444272022    2.00702556069751    6.63291020493849
H         1.99904717170318    1.87791723752853    7.69282357733533
C         2.24970974683630    1.02911465270518    5.68359909321734
H         2.38540734002790   -0.02725551206406    5.79841226492707
C         2.43279838734917    1.00506425791716    3.18849061551225
H         3.05752985945066    0.11812805855484    3.31463929622009
H         2.96503427129571    1.71876250564729    2.55218334542958
C         1.10616066453453    0.59909295233274    2.53374794630128
H         1.34096953755275    0.07783918252743    1.60393986403846
H         0.57333172895806   -0.09466444156359    3.18482071168175
C         0.17708011764604    1.78444520297486    2.24584094142726
H        -0.72142656471325    1.42153932819101    1.74219589960136
H        -0.12705715234006    2.28595410759644    3.17335825640555
C         0.92114834170380    2.75284654992839    0.06935400722994
H         0.49362046688447    1.96952450306412   -0.52364983711247
C         1.63697054449941    3.86439130517340   -0.31324523031090
H         1.90343200816038    4.15105869808641   -1.30858214454898
C         1.93073524031295    4.53328811729351    0.88361914937931
C         2.66564753918332    5.75090781030162    1.17881446951155
C         3.16047844746016    6.60179367701837    0.19485332257697
H         2.99684446112110    6.37728428993000   -0.84633402737947
C         3.85035325986908    7.73759028946993    0.58061637839774
H         4.24236232525485    8.41815342755532   -0.15916943065593
C         4.02911436915082    7.98243627150349    1.93357311725954
H         4.56624753256216    8.85196341455803    2.27591685895317
C         3.50177014200042    7.08422082908062    2.84871868145441
H         3.63190435124270    7.24524421127521    3.91120863736497
C        -1.08767254706181    5.07452367846491    3.54246874681759
C        -2.53684143961802    5.49537045026458    3.45249420028631
H        -3.16747285090307    4.76007698424081    3.94174163006508
H        -2.81609837091989    5.59437124923572    2.40639829030363
H        -2.65764895830037    6.46584804723590    3.92736026773795

