67
CSD_code = SEKWOW | q = 0 | S = 0 | Stoichiometry = C31H28N2O5Zn | MND = 4
C         9.35229571643536    0.48809448031644   -0.22602824291421
C        10.59620601679558    0.15346504978124    0.51235701176354
C        10.93240859456513    0.84630503365055    1.67126102934511
H        10.27019477978700    1.62268933078171    2.02325670458505
C        12.09294574789458    0.53747712010283    2.35094018189809
H        12.35849033110219    1.08916836303431    3.24118196183300
C        12.94474772699468   -0.46419082056899    1.88590531518546
C        14.18722879204187   -0.78521633842007    2.60355833396741
C        14.20873742550982   -0.85309046408507    3.99483808356848
H        13.29680191838623   -0.68716097174154    4.54980316630995
C        15.37827563608308   -1.15837876296319    4.66607966827507
H        15.37905918335318   -1.21494219060761    5.74509158189998
C        16.54609703431962   -1.39343955384588    3.95967142967188
H        17.45971200545052   -1.62952600752206    4.48523707060578
C        16.53698178741715   -1.32472110395530    2.57652936643152
H        17.44597563480189   -1.50365636596873    2.02039159028707
C        15.36712687621053   -1.02667096389892    1.90304558230114
H        15.36897888760041   -0.95834092789528    0.82473747513727
C        12.59882695924007   -1.15565469045336    0.72524032461263
H        13.23985024518288   -1.94893884299963    0.36845068479557
C        11.43621980692654   -0.85327338302886    0.04699480096429
H        11.15975490986054   -1.38868483790261   -0.84860268739855
C         5.18945771325622    0.87449882706154   -0.33939933525159
C         3.84359398474663    0.75658306585321    0.27528647522438
C         3.00955698554099    1.86725086944606    0.35544460037673
H         3.36382195170556    2.81250673756395   -0.02712600454885
C         1.75563896281783    1.75328653677076    0.91971284695559
H         1.11823144925214    2.62241583622054    0.99558767334858
C         1.31034210540174    0.53029205759689    1.42052836664808
C        -0.02582109110306    0.41034659093277    2.02221459860787
C        -1.12574305667215    1.03499678270799    1.43831273263393
H        -0.99501626074178    1.59751004288247    0.52519239986118
C        -2.38281123901233    0.91738099534485    2.00134574128637
H        -3.22810753765052    1.40138850647364    1.53369665481992
C        -2.56088388748631    0.18032357622069    3.16018179084352
H        -3.54291360520699    0.09066542027734    3.60076933970462
C        -1.47374705780976   -0.44130147548371    3.75153092426365
H        -1.60640616795783   -1.01377038144471    4.65819097532172
C        -0.21701786964252   -0.33082124488418    3.18623548437971
H         0.63052946121551   -0.80383468516713    3.66051553315536
C         2.15437199693227   -0.57716155095196    1.33946356788639
H         1.81223517966369   -1.53323649852128    1.70857522346961
C         3.40666256500924   -0.46788038187646    0.77078695182047
H         4.06504760146462   -1.31996308668157    0.69871049050176
C         5.11898103407109    1.84685605539622   -4.08004231778904
H         4.97056187125594    2.10337502179485   -3.03496393460292
H         4.16612506974612    1.57911034234237   -4.53043700711135
H         5.51302309240548    2.71914704637464   -4.60055949805908
C         6.07647265148667    0.71828174680515   -4.18549665600899
C         6.25018982395932   -0.18242191486889   -5.24525850861216
H         5.69910105638277   -0.21010383391349   -6.16270993824556
C         7.27505293783569   -1.02589397536855   -4.86041659939714
C         7.90599068658327   -2.17819811280366   -5.55140889271934
H         8.97374499383784   -2.00686227521537   -5.68090065699378
H         7.45156117708280   -2.32168169327768   -6.52728523416243
H         7.77790985233182   -3.08786493512352   -4.96616791368094
N         6.94586069088200    0.43272098818652   -3.22499575994695
N         7.65873054853679   -0.61636897020156   -3.64223357591104
H         8.37958049557776   -0.97642099339371   -3.03203837877102
O         8.62954144202825    1.43374271055884    0.17145178286365
O         9.04552145580910   -0.15862293157384   -1.25599248286137
O         5.57259996187127    1.98287481218009   -0.79104947501403
O         5.92528084498627   -0.13657859669434   -0.42542362815685
O         7.96685912842807    3.07453549674167   -2.01963622106973
H         8.51151954539267    3.27960273262434   -1.25148365548472
H         7.12343559757521    3.51227326529567   -1.86233857512790
Zn        7.30811784231727    1.00160832197322   -1.31001033754383

