67
CSD_code = SEKWEK | q = 0 | S = 0 | Stoichiometry = C22H37BN6Zn | MND = 4
Zn        5.64586483380560    3.98280442265970    0.87890468648703
C         7.61420102486037    3.98266824282561    0.37715484256838
N         2.87683171203390    3.98283893081892    0.10665208039011
N         4.04435914200324    3.98297417191275   -0.54596843743226
N         3.42173374449963    5.22818210809443    2.20260335438753
N         4.72266074841932    5.50250504680143    2.05229425580558
C         1.86735322557189    3.98286363235283   -0.76776689069712
C         2.39550448754036    3.98303055069919   -2.03939417367978
C         3.78272190838322    3.98311749537953   -1.85753352669933
C         4.88387792021071    3.98336687086224   -2.88850989808256
C         4.35046077044763    3.98361394246501   -4.33655186509435
C         5.73905815618500    2.72760330718823   -2.67279610735211
C         2.83791222637720    6.17789329271937    2.93980478733312
C         3.79368175822537    7.10750728792921    3.28463865151463
C         4.97657585676663    6.64068689435118    2.70235313571457
C         6.34395166855503    7.26377587902070    2.77012683354664
C         6.82268796908061    7.58574321689983    1.35061141990122
C         6.30393137853017    8.55891240930628    3.58661300701015
C         7.30611254692225    6.28032737994761    3.44567206751095
B         2.74363768899753    3.98282760826520    1.62958513264277
H         8.27397971747999    3.98262697016754    1.24120242014722
H         7.90506470862676    4.84816749279397   -0.21301770193200
H         0.84630657918501    3.98275988643380   -0.44410911169654
H         1.83293357577561    3.98308399464041   -2.94953169172324
H         3.26818410566916    3.98368334440329   -4.38103900163102
H         4.70044443827639    3.10532195049363   -4.87303003080683
H         6.57886922249535    2.72214972936240   -3.36416981173850
H         5.14165407869908    1.83331356522095   -2.83978147676258
H         6.12135426996376    2.69999115492683   -1.65684761403783
H         1.79325200646179    6.13876297258109    3.17357947738430
H         3.64846055292036    7.98967188832084    3.87187108250193
H         7.82179020830347    8.01487272346828    1.37873707701541
H         6.15115461758276    8.30029328783145    0.87899326954920
H         6.84517083854846    6.68339723362178    0.74741077317796
H         7.29898346491961    8.99700652032481    3.62522435615101
H         5.97759660508566    8.36536651189926    4.60574182502645
H         5.63030340256824    9.28259376375223    3.13376066451068
H         8.30909237986334    6.69958901871364    3.48266133628857
H         7.33610671900483    5.34525950528964    2.89466223777978
H         6.97949919282875    6.07141967477345    4.46242284960968
H         1.59526171705955    3.98284594831523    1.92706489287556
N         4.72264580043327    2.46318038459241    2.05245929126873
H         7.90494739217210    3.11711813227561   -0.21300086261810
C         5.73891348038475    5.23914852805450   -2.67231600335182
H         4.70053651590381    4.86203442615664   -4.87275884912735
N         3.42169559527386    2.73747186391367    2.20263210014686
C         4.97654147813477    1.32506791661848    2.70265184729112
H         6.57872772111573    5.24496538248172   -3.36368301280293
H         5.14140428931586    6.13343034857728   -2.83896348167099
H         6.12120022076699    5.26642224846239   -1.65635452827593
C         2.83783813233282    1.78780428191477    2.93986146806984
C         3.79360762770842    0.85825403173279    3.28486288868957
C         6.34393986662705    0.70205552863937    2.77068078856129
H         1.79315441621587    1.82691929270874    3.17353395904843
H         3.64836246776969   -0.02386262387688    3.87216130315685
C         6.82287945572358    0.37989678590135    1.35127888203734
C         6.30388472522158   -0.59296131552506    3.58735641284710
C         7.30595757511940    1.68565615908434    3.44621004431406
H         7.82200923548098   -0.04915567791043    1.37960400371837
H         6.15146057316000   -0.33478199881487    0.87969266435204
H         6.84537052052444    1.28214530556423    0.74793415807334
H         7.29895786346711   -1.03098979689305    3.62617148909822
H         5.97739783021510   -0.39928214094374    4.60641127154596
H         5.63036437598293   -1.31675261208016    3.13451941007877
H         8.30896142249804    1.26646716386350    3.48337289227215
H         7.33594997706290    2.62065722948957    2.89508700581201
H         6.97921027265680    1.89467132818040    4.46289568000484

