61
CSD_code = SEKWIQ | q = 0 | S = 0 | Stoichiometry = C24H26N4O6Zn | MND = 4
Zn        6.15767783333116    4.44861274216517    3.19698464382334
C         6.80818926449139    2.42997604456150    5.11164073002089
C         7.20658999270619    2.15916454458232    6.52355743903644
C         7.95427641818530    1.64390870896244    9.14966736128336
C         7.99662881725606    0.62506372026270    8.20035925832006
H         8.32289186134355   -0.35570651432908    8.50818296709914
C         7.53687242106999    2.91886226091068    8.77855616494742
H         7.50453088113062    3.70794478509034    9.51917480517821
C         7.16665624295497    3.17359221579811    7.47394786379638
H         6.84065263260147    4.15709868445303    7.17301627915722
C         7.62426191542508    0.88500436444495    6.89950537791658
H         7.65121947697416    0.10678224404504    6.15221670551348
C         3.67651897655701    7.81267433425782    3.36534952344886
C         2.82506570202394    7.33130840241164    4.35686723216321
H         3.04119878574597    6.37443044448525    4.80604633279460
C         4.86265293375576    7.01690213376296    2.93065645854259
C         3.41287234295970    9.04486104389180    2.77765460973984
H         4.07826163654217    9.40874927891537    2.00957430405940
C         2.31813095890942    9.78686685163709    3.17237521396417
H         2.11459469024157   10.74684013150584    2.71483146912162
C         1.47042852354917    9.30213030486689    4.16360677951298
C         1.73032292425050    8.06707996047697    4.75472467274883
H         1.06038508128606    7.71061537673971    5.52113486933376
C         4.64618596144636    1.21456908568942    1.24146049674000
C         4.45329269564513    3.39094933939632    0.84940565321523
C         4.05851798592196    2.13392504803287    0.38545613463460
H         3.43174946998248    1.92606487383902   -0.45720707950418
C         4.09872166920179    4.72719214961898    0.31009193750932
H         3.12963099565444    5.04079419424094    0.69820165444375
H         4.03744002570946    4.69320791104620   -0.77512071593184
H         4.83586704555754    5.46774384268017    0.60849211695289
C         4.59661258237539   -0.26822987957577    1.26461841125876
H         4.95431190081085   -0.67568452111748    0.32068416171783
H         3.57364693640835   -0.61084141264324    1.41180018096507
H         5.21606836339689   -0.64561351977431    2.07374189148593
O         5.04908334393845    5.90975698087713    3.52355511975761
O         5.59050765601598    7.46010015426748    2.02685852167656
O         6.46681776567567    3.62257372710875    4.83769247003207
O         6.83567169857876    1.50454265315320    4.28370600449367
N         5.23257310964559    3.23439940274472    1.91922907858081
N         5.33939073700715    1.91739313813842    2.14134970641404
H         5.92238898445823    1.60440800055415    2.95304852106748
N         7.88443927698208    5.01118404256399    2.37767002930819
N         7.92952555153999    6.24662833467495    1.85919095004497
H         7.05138037619092    6.82442238267963    1.86793059750345
C         9.09743723371611    4.47835781207568    2.23038972008204
C         9.14414162563367    6.52778121851586    1.37961837673017
C         9.43328239470819    3.10682494866070    2.68664050117841
H        10.12539658654276    3.15018145085813    3.52689285694199
H         9.91194843953644    2.54916506036796    1.88371829245332
H         8.53872658711173    2.57888749694181    3.00416875045425
C         9.92997609700423    5.40723023574309    1.60095972774572
H        10.96112244505445    5.27693669408237    1.34419654640853
C         9.46103344246284    7.83464839352042    0.75217914199290
H         9.82773502204938    7.69049649412769   -0.26256435461703
H        10.23518417862606    8.34947468805591    1.31894467006694
H         8.56976259404328    8.45571514547715    0.72486156305704
O         8.32856191258422    1.35155855428385   10.42278376486532
H         8.25044250560135    2.13843735349366   10.97605505610560
O         0.38133851410694    9.99849762165637    4.58276070186307
H         0.31840597582943   10.83125884004984    4.09910778076856

