65
CSD_code = SEKWAJ | q = 0 | S = 0 | Stoichiometry = C17H40ClN3OP2Ru | MND = 6
Ru        2.75851824226815    7.52126064147771    4.93636021616399
H         3.42618115853719    6.50357349847080    5.83942899236169
Cl        1.58592321643302    9.20402762830200    3.69415222414709
P         1.60652141762941    5.76699747664811    3.95897339402289
P         3.87482604770892    9.20080206958459    6.10076016411048
C         4.07922138745372    7.42240187937346    3.67591161378416
O         4.90098150430271    7.37662082456503    2.86779488822562
H         1.03767204060421    8.76908946015130    6.05460480743162
N         1.05266125781327    7.80958660829079    6.42962276886793
C        -0.29767334336993    7.26937008012692    6.21550352122971
H        -1.04237168507764    7.96004933337407    6.64018405734167
H        -0.37360336169684    6.31780061080683    6.75788715299247
C        -0.64900927176543    7.01724748704925    4.74341827992450
H        -1.73807528368371    6.94589603463370    4.65282412518140
H        -0.30784242245951    7.85825614222188    4.13306976447965
N        -0.07213093804081    5.80018602928403    4.19959255388901
H        -0.40781233520147    4.98053937750056    4.69747117934036
C         2.00656674740113    4.05475003512607    4.57600671554564
H         1.32348637538229    3.35464769963378    4.08023245568856
C         1.79587100282458    3.96294629225483    6.08355736895979
H         2.12817915302336    2.99336360711332    6.45139061601337
H         0.74694776419670    4.08029111907683    6.35455565022151
H         2.37409149006081    4.73989492003323    6.58192908900707
C         3.45053369341739    3.72748282436764    4.21602758748576
H         4.10433091484174    4.51457582017593    4.59324211802972
H         3.58444877962103    3.65954706411199    3.13910638063355
H         3.75164790223276    2.77936432065777    4.65938728511052
C         1.69929563291640    5.52994849819373    2.10593852581768
H         2.76812477113798    5.48774925528143    1.85945321792128
C         1.08751936965652    6.75018148582601    1.42605536317713
H         1.19148522615586    6.67500189276258    0.34462858138810
H         1.57995880123661    7.66378743157275    1.74851684095309
H         0.02873063617525    6.82292803764251    1.66960097851948
C         0.99416607627424    4.26572943574760    1.62229182752400
H        -0.01424383904301    4.22234222762297    2.02992988344776
H         1.53150788708587    3.36159560261562    1.89693876903711
H         0.91831405804615    4.28853646035911    0.53611028327425
C         1.29987936423472    7.90300676257783    7.87531591839972
H         0.90476601049174    6.99803484401356    8.34981668493345
H         0.76488766927587    8.76820795681672    8.29351599995675
C         2.77669501673752    7.99371490152159    8.26645964584587
H         2.82772415531907    8.03044579171699    9.35837003985529
H         3.28161108332102    7.08253690108235    7.92284353993257
N         3.38750394472543    9.20029357645932    7.72639311858619
H         4.09928304115088    9.57982749481076    8.34276529932621
C         3.68592537648755   11.03544630886725    5.81906313060023
H         4.31542546294408   11.51682396787334    6.57916966093565
C         2.24657912382979   11.48232952811888    6.05749346152017
H         2.19032845945472   12.56988124224729    6.04062976943322
H         1.89385096502322   11.13560776388909    7.02859304212176
H         1.59584434167469   11.09979565389295    5.27448874192059
C         4.16102750066215   11.41908694824541    4.42366344361978
H         3.54823314020252   10.92180278064605    3.67507321232475
H         5.19894348699477   11.13377141482292    4.26035316673260
H         4.07111358188962   12.49454701879424    4.27617619510868
C         5.74888129594682    9.03013400876901    6.11283276721192
H         6.03856026500968    9.04405130130619    5.05514141831431
C         6.50186651623161   10.13197615507252    6.85536728292754
H         6.13211702194989   10.25324051975152    7.87381028738326
H         6.43761357404530   11.08848898185597    6.34399024658696
H         7.55550126573341    9.86241495358659    6.91950921432426
C         6.12352456301924    7.66702117064656    6.68874149845018
H         7.19093064651969    7.48762069286129    6.57194224208765
H         5.58151261118502    6.87807263768673    6.16946821155840
H         5.88462044182680    7.61744950998578    7.75105351883668

