91
CSD_code = SEKXAK | q = 1 | S = 0 | Stoichiometry = C42H42CuN2O2P2(1+) | MND = 4
Cu        2.50553165630247   10.77679388441700    8.54945335895608
P         4.44330205093989    9.69113717865552    8.08510781661853
P         2.80869731785290   11.92418993300204   10.48783170179312
N         1.07948346491157   11.52459305886971    7.28208614964876
N         1.12313630921919    9.27653456647418    8.64953808653210
C         1.32208601903587    8.11561918936259    9.26840685680412
C         0.61133482087526    6.96838532224717    8.94364886747370
H         0.80905892871970    6.04924321924488    9.47027217140940
C        -0.33925782175464    7.02459355658694    7.92713071989420
C        -1.12141814594894    5.81678699841253    7.53627992180737
H        -1.40588694604341    5.85690477970528    6.48790113510300
H        -2.03476594553073    5.76485518109163    8.12959368480276
H        -0.55226461721233    4.90972533591276    7.72123546690616
C        -0.54889309638894    8.25184170586714    7.30444164756970
H        -1.27115219452321    8.33021759181546    6.50714339915740
C         0.19235207566684    9.36196232326317    7.69613773461842
C         0.03594218262717   10.70028164804466    7.11488176656314
C        -1.12503286314303   11.11700600954516    6.47101027106773
H        -1.96213176080737   10.44407466212654    6.37316507136952
C        -1.21879297161173   12.41238905519106    5.97899152003471
C        -2.44295282371909   12.90259456935275    5.28479261661456
H        -2.83019522370954   13.78803819104497    5.78651657697846
H        -3.21847740131064   12.14207395244260    5.26429173328165
H        -2.20294507566293   13.18673518440642    4.26102513825703
C        -0.11701865229577   13.24936593327491    6.16483062211136
H        -0.13558042280726   14.26520677898499    5.80369774973814
C         0.99678773738098   12.76516192331725    6.81945769048115
H         1.86090922697208   13.39330854801902    6.98345256928109
C         4.48288359433746    7.87612894617873    8.06325881117471
C         5.23919803216203    7.08436265777239    8.91885487457655
H         5.94112497044120    7.53916652531450    9.60270589509254
C         5.09930357606375    5.70719016840509    8.88805607789322
H         5.69354491654872    5.09280976907038    9.54870818111464
C         4.20367003244172    5.11328466005361    8.01436470027061
H         4.09847230320800    4.03923145222180    7.99835338024091
C         3.44745751348935    5.89795252232452    7.15752568006938
H         2.75283127058507    5.43705804752873    6.47074848032830
C         3.58339411936968    7.27199626586200    7.18630977892198
H         2.99781013917512    7.89987884688441    6.52441697008205
C         5.16644747176873   10.07226782672960    6.45630798581884
C         6.27721454593682    9.39219877551044    5.96834147847241
H         6.71813870555889    8.59357105910080    6.54967211951098
C         6.80603421243281    9.73429728158823    4.73803259959768
H         7.66788021040005    9.20675212780029    4.35767550508521
C         6.23230692601760   10.75255283549476    3.99190548367285
H         6.65048727632823   11.01668083959609    3.03254592114288
C         5.12156396510528   11.42670649939572    4.47170588389476
H         4.67270810982121   12.21528718071453    3.88606935638731
C         4.58688489047712   11.08390277752327    5.70077421516759
H         3.70979711580838   11.58854902611139    6.08910665909532
C         2.52014195181758   13.72258662316526   10.57530149716089
C         2.99684246483741   14.50476579614682    9.52803809544183
H         3.50506456781142   14.02634440177518    8.70021107345662
C         2.83038736358613   15.87702045598457    9.54820492723342
H         3.20802971161153   16.48052109593419    8.73603209731524
C         2.17639986429291   16.47586407706080   10.61280912056950
H         2.04177755638627   17.54659051963485   10.62977563539394
C         1.69366452040747   15.70089739989419   11.65514229795925
H         1.18364717821639   16.16881018698322   12.48383626731550
C         1.86378876531987   14.32820732026046   11.64090818612258
H         1.48584944432505   13.72480443841042   12.45464484507915
C        -0.79295523004854   10.70423411111230   11.81012607229570
H        -1.79398654512925   10.70881929972441   11.40420936897747
C         0.24729576457765   11.26655015329285   11.09778673484573
H         0.07216756030121   11.71215180233462   10.12513182285863
C         1.54248620450533   11.27021645008754   11.61379666722395
C        -0.54729202370897   10.12621217814162   13.04652390745420
H        -1.35559194388463    9.67901475278770   13.60478992271083
C         0.73662441842060   10.12407224476548   13.56409431415076
H         0.92622221829696    9.67792402206574   14.52960319627471
C         1.78156911697121   10.69153220879066   12.85361945201222
H         2.77668136603731   10.67980483771139   13.27204259878411
C         5.61227598335663   12.29457882158296   10.72774398670186
H         5.56495527804896   13.38544161927421   10.67547302545265
H         6.49467443032558   12.03225531521117   11.31781997930606
C         5.77172479269020   11.75975797091950    9.30449507638752
H         6.68025874023690   12.18307884920149    8.87282173990668
H         4.92691841737716   12.13347946585528    8.70885653130969
C         5.80736203493686   10.22727261202078    9.20271645792482
H         5.62914754654377    9.76770569964479   10.17466224235996
H         6.76383711888984    9.86985849205290    8.81092559078739
C         4.37317607905737   11.77505446319588   11.45822132033057
H         4.24756327328682   12.32592906077190   12.39699583579977
H         4.47505273311482   10.71095604741425   11.67981112033985
C         2.36119986197454    8.12273418144925   10.32801842620763
C         3.28315494750653    6.96529876020776   12.13654680543980
H         3.07768804207886    6.04284258100734   12.67252858775018
H         3.18405922285477    7.82547047184794   12.80136089195583
H         4.28995441397481    6.94739632897106   11.71513002664084
O         3.16536045398501    9.01941796598464   10.48239388225293
O         2.31901260927713    7.04008054542237   11.09268829006625

