59
CSD_code = SEKXOY | q = 0 | S = 0 | Stoichiometry = C20H26N8O4Zn | MND = 6
Zn        1.60636790889819    4.77633926994254    5.68511243952188
N         1.72057937457348    4.79656049068800    3.72645327126333
O         0.33751729167538    3.14736431576705    6.00297040656500
N         1.58666307808361    4.67072182747712    7.64886246138333
N         3.13821097564029    3.25399626536266    5.22898389912757
O         0.37589878563860    6.39286869714826    5.21527422363011
N         3.07789737930359    6.27223421707039    6.29885543866719
O        -0.33485050768688    1.87529377624323    7.72663458283878
C         2.40369270571913    3.90282755095395    3.08695608914359
N         1.14004759910018    5.82250909566164    3.11221821732337
C         2.26901181234499    5.50016297538110    8.37253059959860
N         0.94916378677637    3.63110830817449    8.17582652939902
O        -0.14748430012837    7.60895644339736    3.40088901507041
C         0.46184929579388    6.57067439645694    3.98567080150165
C         2.92967076049877    6.54607182417937    7.60645305773785
C         0.32679322920523    2.92602285984916    7.22765634501258
C         2.97686188582641    2.87916317790382    3.94812800312202
N         4.03609376738494    8.62795472380870    7.30339913080523
C         3.32672946560272    1.55781508941659    3.57667897766939
C         3.69495707835036    7.13736658854277    5.51254859470963
H         3.77006366074888    6.87851662918433    4.46634730873199
C         2.61633073491106    3.99313772944098    1.60787014781005
H         2.41275674128925    5.02302148299002    1.32024755879523
H         1.92338532467322    3.35580506444954    1.06201126422945
H         3.63697921853103    3.72903037114741    1.34003624139192
N         3.94090092045769    0.76263320523336    4.43542691780392
C         2.38998121905190    5.31524603478838    9.85331368393824
H         2.09063541722579    4.29150286771095   10.07008060661397
H         1.72157249138775    5.97908957741425   10.39739724755385
H         3.40951989359340    5.48199945988675   10.19157980386135
C         3.38607522011108    7.79691443435861    8.09757582461657
C         3.70475606865158    2.42351166277193    6.08662178293968
H         3.78987699802304    2.76104887955958    7.10941746768579
C        -0.89201468523707    8.44661795567948    4.26709598831224
H        -1.34208072520313    9.20635716145742    3.63241132742048
H        -0.23933277081402    8.90889724723962    5.01208143753034
H        -1.66398065379751    7.87485564360669    4.78698266630594
C        -1.00939236026710    1.07257817398372    6.77423764956107
H        -1.51626321693406    0.29708192539390    7.34358482595307
H        -0.29867155199894    0.62840475514905    6.07247980411275
H        -1.73068942244408    1.66763958679503    6.20967005876048
C         4.21987196667351    8.30845872416430    6.03208881734363
H         4.77677957549533    9.01413059059540    5.43274009821717
C         3.47368112837514    9.76897055364731    9.65297164402528
H         3.26487511289643   10.08773483531541   10.67116278122806
H         2.88648134537085   10.37317941635992    8.96750894181502
H         4.52393991829098    9.93822596383539    9.43668300512610
C         3.12937769853904    8.29300926354993    9.49109050502326
H         2.07674998498766    8.13044562075088    9.72985246210852
H         3.72440092495127    7.70888073055790   10.19617404763504
C         2.93811951102511    0.90796349454181    2.28372098423585
H         3.23839085495158    1.51153329474675    1.43026777443813
H         3.45602368508855   -0.05079364882629    2.23235162229360
C         1.42559437259608    0.67263396463412    2.25550682857024
H         1.13055158047468    0.24346945601758    1.30113844132705
H         0.88401697844522    1.60336412747088    2.40673826777880
H         1.14119538606351   -0.01701565674586    3.04673746409195
C         4.16996865921026    1.18718852935465    5.66780224263671
H         4.70370142201200    0.51291899835386    6.32169237407588

