82
CSD_code = SEKXOV | q = 1 | S = 0 | Stoichiometry = C24H51O3P2PtS(1+) | MND = 4
Pt        5.43312468494346    1.77349120429714    1.95077616035753
P         7.52081644731207    0.97175856497901    2.58520808249863
P         3.35753770642069    2.39362052039364    1.06684653668364
S         3.25377995858550    0.18971518830726    5.30200061150624
O         1.83195155132580    0.37256565244982    5.21356748416697
O         3.81223713368652   -0.41552038741270    6.47874050474636
O         6.61025129670799    2.73047834326501    0.07809583019591
C         4.16834934726520    1.65005503002359    4.70466188557516
C         4.51958250893615    1.02479931467853    3.57553465733966
C         4.00186872695747   -0.33200718544729    3.71399351976100
C         4.16459784356238   -1.46150861472577    3.04330731401714
C         3.63080366406776   -2.81521252995610    3.41410128829735
C         3.08125236038649   -3.48779943053982    2.14965044307995
C         2.53327890510047   -2.72779962485524    4.47146914155912
C         4.81022630291497   -3.63538747908988    3.96055674808616
C         4.44802627071071    2.91997005646455    5.42049816625101
C         4.90126123666851    4.01801789847830    4.45270157840350
C         5.56040065015066    2.61287865959196    6.43716780414439
C         3.18222555447313    3.33565403803419    6.17625700974385
C         7.55794695580997   -0.20665527137608    3.99964168425043
C         8.92507433065763   -0.77452991857609    4.36085888107150
C         8.16594121288734    0.02094328750647    1.14252856946142
C         7.09089161520027   -0.88151392435594    0.54766360433325
C         8.91747525593692    2.14347616876992    2.85806705782603
C         8.79674938882434    2.96628402098802    4.13368696361102
C         1.97152786451312    2.61531095017142    2.25604900363367
C         0.62715313286889    3.00854058307273    1.65502242541098
C         3.43522601229243    3.97758432104344    0.11513492961522
C         4.05210844649092    5.10718068430024    0.93255069106280
C         2.69083093786979    1.26597008676230   -0.23162116466144
C         2.26628207737262   -0.08445297253755    0.33004586294291
H         4.77676866091885   -1.44597724562117    2.14616327414723
H         2.75030392727635   -4.49646385664339    2.38077899025703
H         2.23199224359610   -2.93064438209236    1.76147365056363
H         3.84264665368490   -3.54929088421243    1.37436741944132
H         2.12097067199208   -3.71647933342550    4.65739616640311
H         2.92334269456544   -2.34238214626909    5.40879144344684
H         1.72860229441189   -2.07443523382728    4.14350042235706
H         4.47383644721142   -4.63493569289086    4.22176309428322
H         5.60225953575769   -3.72487415784191    3.21900646659366
H         5.21297143166606   -3.16346022106800    4.85388392122005
H         5.42344650276440    4.80521241219825    4.99025147320297
H         5.57567903776425    3.59569708860284    3.69749017232590
H         4.04552072234586    4.45979827636503    3.95090850537448
H         5.72111303678520    3.46988721454436    7.08622514120738
H         5.28036139684237    1.75855390393889    7.04843068598330
H         6.48958926623796    2.38437905992774    5.92127570961875
H         3.36003893733412    4.24959117318041    6.73760716154368
H         2.35471627527490    3.50023719484349    5.49032200856206
H         2.89039311993758    2.54885605344887    6.86752328377232
H         6.86755563261827   -1.01503895776721    3.74633642594059
H         7.12274116074707    0.30934550646381    4.85898438287049
H         8.81528263949001   -1.46471281588103    5.19400586481814
H         9.36435600735034   -1.32428182740631    3.53200799544280
H         9.61722023272465    0.00590894221674    4.66566290094603
H         9.03807834372837   -0.56330277885059    1.44150180637720
H         8.49713691309893    0.75215933926984    0.40072855426363
H         7.41217828814365   -1.28961009774680   -0.40834257163776
H         6.87907671103173   -1.71427969512793    1.21393412988894
H         6.16592796135631   -0.31577134226549    0.39316008529239
H         8.94897657963618    2.80762372509600    1.98992519243266
H         9.84245494181987    1.56060686421661    2.86287122097402
H         9.64169947232941    3.64605556006375    4.21891685750369
H         7.88447701691906    3.55768983998322    4.12761395718335
H         8.78964772774746    2.32758081189351    5.01354902155981
H         2.29454167788648    3.37392395476759    2.97211505108154
H         1.87640360407598    1.68203071270505    2.81867921314264
H        -0.10912546676498    3.07223117446070    2.45259026104983
H         0.67007049002379    3.97872483358114    1.16552858890495
H         0.27414252922255    2.27109126922334    0.93926926593700
H         2.42975097280037    4.24837871494532   -0.21279258194597
H         4.02501821038493    3.79048834132208   -0.78786844337330
H         4.24905824144440    5.97472154559394    0.30617409763037
H         3.37694580174962    5.41681912954500    1.72586492044975
H         4.98781993809109    4.78890460085053    1.39577573155819
H         3.47315618884784    1.12409599247203   -0.98382466230647
H         1.85078336151955    1.76328518574067   -0.72336979826529
H         1.95109488482683   -0.74374235866225   -0.47574764659681
H         3.09166787345999   -0.55203201431901    0.86131281419801
H         1.43811052847757    0.02357930720655    1.02545962625612
H         6.49560291808836    3.67676627188301   -0.05539225095974
H         6.49401637988905    2.29018380702426   -0.76895227596313

