50
CSD_code = SEKYIT | q = 0 | S = 0 | Stoichiometry = C21H21Cl2N3O2Zn | MND = 4
Zn        1.87971389888902    2.99460242806943    7.47458894313043
Cl        1.71844525123139    3.28238864946051    5.30624841034785
Cl        3.75690466662434    3.35478457385485    8.56201738256782
N         0.15907364590890    2.71662390164416    8.55160421637258
N        -1.17894722951823    1.99034302863354   10.16017461079273
N         1.48789057194597    1.63960165072882   11.45696301630209
O         2.12109039965459    0.76937800078633    7.07868497082985
H         2.16090505066472    0.78095827217538    6.11111277128178
O         1.10926920874757   -0.50376195466806   12.79760704632696
H         0.94609261843062    0.39659555707774   12.40569090406215
C        -0.99207893188371    2.24622070584110    7.96032247829541
C        -1.37319076515697    2.18707169870044    6.62543313338336
H        -0.71927953721300    2.54631406245568    5.84801564217132
C        -2.61278433777079    1.64968745307831    6.34886568094609
H        -2.94339942464076    1.58681745827485    5.32364264523278
C        -3.45636015659080    1.18162521414938    7.35940014207898
H        -4.41646380116263    0.76740101672714    7.09162456899243
C        -3.09186919827046    1.23475338769440    8.68922260678150
H        -3.74383319195453    0.86872083762435    9.46681402285327
C        -1.84765423382868    1.77773198379958    8.97561777424371
C         0.00875491577261    2.55240721271336    9.85102123995662
C         1.03986232919574    2.88284684191249   10.87413985443776
H         1.85359638460904    3.43945016314012   10.39420326062928
H         0.59970002031315    3.49799286394540   11.66769837974763
C         2.66495301055882    1.22019160434609   11.17717199390446
H         3.31897129383443    1.82531803747924   10.55323370441390
C         3.16631807458792   -0.04221468648390   11.65481188917784
C         2.35094363141717   -0.85612407290135   12.45131651775503
C         2.81952072583444   -2.10104387528776   12.91946986779794
H         2.15334257530398   -2.68749146498367   13.53271574366802
C         4.07123230562168   -2.52913344819262   12.60157058366501
H         4.42951524135086   -3.48191130636311   12.96381053643456
C         4.92994201172376   -1.74779645156355   11.79531509351106
C         6.21982948694027   -2.21010410579064   11.46936300474183
H         6.53381359127506   -3.17069929114944   11.85222346649119
C         7.05651147836468   -1.46341612550606   10.68738965258956
H         8.04470130219315   -1.82153475846186   10.44041507493190
C         6.62351099633507   -0.22323352911008   10.20547343611091
H         7.28380177804786    0.36754764019560    9.58832000910582
C         5.37480427567826    0.25404519847357   10.50718555639881
H         5.08929878754269    1.21498636249880   10.11122312977594
C         4.48543509574191   -0.48832727369071   11.31103840682812
C        -1.65977193772513    1.61163901591890   11.46010497847622
H        -1.53671568449956    0.53720841604602   11.61303034540457
H        -2.71743845189417    1.86382425949088   11.54036230343377
H        -1.10408895103806    2.13792344434053   12.23177133998631
C         3.14398736289728   -0.08698382878548    7.56593822016132
H         4.13733039630348    0.30472865565816    7.33588650330913
H         3.03389522162310   -1.08762153049744    7.14114117786708
H         3.02971822790117   -0.14073189448212    8.64670376366957

