27
CSD_code = SELFUL | q = -1 | S = 0 | Stoichiometry = C16H10Au(1-) | MND = 2
Au        2.86148716660179   12.69661766669597    4.04875460948972
C         2.31017051397476   13.44726086500494    5.75635739894146
C         1.92594024229530   13.89615160692664    6.82008006941790
C         3.39441212267074   11.93372948168553    2.34074882803269
C         3.71908819842247   11.45146300616244    1.27183822616703
C         1.48203110257069   14.40934810769358    8.05603299659026
C         2.38330143813424   14.94957135269354    8.98358424032985
H         3.43734792888360   14.97256609626737    8.73807313706337
C         1.93958667466403   15.44462998359228   10.19208896159339
H         2.65019586836543   15.85792317947122   10.89853761592823
C         0.59002351215095   15.41691514061040   10.51185231474148
H         0.24511009170694   15.80640066255986   11.46128637162766
C        -0.31385835016519   14.88543010943008    9.60347914872204
H        -1.36957340401630   14.86006054836167    9.84756422982391
C         0.12165771070952   14.38841029970775    8.39315876051871
H        -0.58513822993266   13.97330451506583    7.68612328910365
C         4.09707496087248   10.88892638452089    0.03544314003351
C         4.70005291187926   11.67125672949357   -0.95876767072721
H         4.86967496695793   12.72261267411525   -0.76528157772756
C         5.07265152899709   11.11584434528959   -2.16477293836672
H         5.53909494169102   11.73541529946820   -2.92180964146197
C         4.85584550880994    9.76903487095088   -2.41623117277973
H         5.15159377415570    9.33583528945785   -3.36313316787616
C         4.25704503584878    8.98260122068196   -1.44293187336371
H         4.08383520167702    7.93008299226194   -1.63476338926049
C         3.88173150981185    9.53042510301750   -0.23420460164725
H         3.41441707226288    8.91488246881270    0.52359269508579

