72
CSD_code = SELHUM | q = 0 | S = 0 | Stoichiometry = C37H25F6N2PRu | MND = 9
Ru       -1.90456996512196    3.36986736928134    1.88886408014712
P        -3.45175640367914    1.83727885434541    2.80243855753657
F        -1.52023174691598    2.66332256423359    5.22584439871855
F        -3.23306878044615    3.97116602089579    5.31213807139642
F        -1.34112374332072    4.60296107810212    6.09799912593800
F        -3.09202013645762    6.24904068603478    3.48461688753510
F        -1.17114817904782    6.53019061555341    2.57904032947347
F        -1.39843917465045    6.69365079238546    4.70414629137442
N         2.54619095511491    2.01480942550760    4.67554283945707
N         0.49636282338442   -0.69567158186124    1.96538486961823
C        -2.68158304718001    4.97367544619094    0.48487016068624
C        -1.29564302781976    4.77112878767489    0.26379623029232
C        -1.11124501644601    3.44586200461906   -0.22571522872612
C        -2.36515366011450    2.81400796208945   -0.25172849063944
C        -3.34559755747666    3.76409909113840    0.20857457614815
C        -0.35260416172150    2.56271303478837    2.90660762630969
C        -0.28664474776377    3.95982561877138    3.15530223292080
C        -1.53517681046233    4.48151373861606    3.72022208767541
C         0.56436219964947    1.58827456184559    3.10936695526324
C         1.65505469337846    1.81066450958009    3.98375658664243
C         0.51590573780150    0.32352468437212    2.49433705057835
C         0.95550460314779    4.71347766665568    2.92926601182452
C        -1.90815037869173    3.94016174075879    5.07301724514746
C        -1.77836478577761    5.96946981158631    3.63987282636274
C         1.38701690925872    5.63646504007732    3.88154939425545
C         2.60003836376452    6.27991324453023    3.72289751883051
C         3.39824349060989    6.01385130813820    2.62410912142610
C         2.98722187249431    5.08081760497519    1.68623694522507
C         1.77984867409928    4.42992995140339    1.83989457302462
C        -3.18442899137870    0.70233749258726    4.21796797345448
C        -2.37131939680182   -0.41856743363700    4.08505510652776
C        -2.15008822646816   -1.25471487900071    5.16464330886460
C        -2.73359830358396   -0.98385891881705    6.38968796615106
C        -3.54344382170197    0.13071693912998    6.52942903700150
C        -3.76666502829335    0.97206493748459    5.45593766404189
C        -3.83909089221554    0.61854252316005    1.48647478041501
C        -2.76741095228913   -0.06619060040383    0.91351917446946
C        -2.98221008099489   -1.03050472067578   -0.05279573178428
C        -4.27013030707228   -1.30257577822881   -0.48583499390365
C        -5.33391089346269   -0.59185561469703    0.04165529723691
C        -5.12426118511721    0.36317804737808    1.02301306606020
C        -5.09332584462847    2.52152330180204    3.20348167238982
C        -6.11390883620428    1.69428169795671    3.67539721702037
C        -7.35965571066142    2.22313235905978    3.95327901438996
C        -7.60105549808676    3.57674074794273    3.77086886228778
C        -6.59093965677660    4.40203131771159    3.30927407872750
C        -5.34303199103703    3.87508720884168    3.02459867154749
H        -3.14728021562819    5.91518516900963    0.73503951688408
H        -0.53950403193918    5.54383605021796    0.28270134969761
H        -0.19059834572135    3.03477119633127   -0.61487939713504
H        -2.59152481453465    1.86690337248794   -0.72074196829891
H        -4.41795019923942    3.61974752173327    0.14686692299628
H         0.79535518604604    5.82599233936646    4.76350429545599
H         2.92304986655091    6.98907829610251    4.46963317553459
H         4.34301279932874    6.52180674291629    2.50384337872408
H         3.61168950538413    4.85539169633873    0.83451934397475
H         1.46608608666716    3.69505665568028    1.11070749792671
H        -1.90946900801664   -0.65457629727640    3.14091508924255
H        -1.51334021724054   -2.11799140739278    5.04272361900573
H        -2.55564413204267   -1.63458582109309    7.23257131038701
H        -4.00033911675474    0.35368262134940    7.48220557077661
H        -4.38726996002850    1.84527883520415    5.58864849973759
H        -1.75539849944744    0.17998120994890    1.20593237913733
H        -2.14039457740831   -1.56091595873562   -0.47155926658104
H        -4.44136312778917   -2.05362998951457   -1.24221608484165
H        -6.33782095930903   -0.77945594998799   -0.31009792212109
H        -5.96828414229850    0.91133713622056    1.41432223788685
H        -5.92423143309336    0.64097506048091    3.83110914741126
H        -8.14525395166320    1.57778168800874    4.31798879195557
H        -8.57496205929790    3.98525327753284    3.99532770115532
H        -6.76863941755763    5.45824576794776    3.17554574363783
H        -4.55067861783262    4.52179052718857    2.67678802802749

