67
CSD_code = SELHOG | q = 0 | S = 0 | Stoichiometry = C33H23F6N2OPRu | MND = 8
Ru        0.01326286797383    8.31814988687461   10.07666677073756
P        -1.96823672578835    8.77121655184696    8.95574848273002
F        -1.98994676162600   11.69125002832320   10.79853029848425
F        -1.64687347468022   13.36710297835941   12.08769305689638
F        -1.28251586059252   13.53380957143579    9.98061855418455
F         0.68309033555103   14.60875367520653   11.17583575496900
F         2.06793277427290   13.34533382789043   10.12966995749714
F         2.08173602536929   13.42143276273612   12.27303000847538
O         1.91204938495613    9.86056849516496    8.39229124323286
N        -0.80759388812572   11.29108513070550   14.54884296400319
N        -2.66094198713923    7.78864602046579   13.01615912553313
C        -0.59537218777694    6.36202313076078   11.06146785470456
C        -0.19418942877971    6.09318132456337    9.71803163320789
C         1.16644674168591    6.43005149978049    9.58625193592360
C         1.61465461564002    6.93928207939136   10.84072788136863
C         0.52730692376922    6.85133878656750   11.75278050525523
C        -0.22985638380899    9.84052118275157   11.45041168462351
C         0.67049968316187   10.99549828984718   11.43337261115150
C         0.27264455683187   12.27209520835259   11.24115525444996
C        -0.99627386176089    9.67800459820060   12.56533138447859
C        -0.91390710440648   10.57624591752315   13.65865965971649
C        -1.90856585572479    8.62166064027245   12.77204118150214
C         2.11170890641265   10.67305921361010   11.70766017849093
C        -1.14664208619628   12.70787195525583   11.03205702772475
C         1.26037297997361   13.40842233907929   11.21077547483043
C         1.08914692730781    9.37211311552019    9.03219254823415
C        -2.33655044268112   10.36344598882920    8.15226991329991
C        -1.32684578882313   11.29596875794803    7.95645182593624
C        -1.57828706888622   12.45646342442620    7.24609366820505
C        -2.84173473667021   12.69094107094097    6.73138570735676
C        -3.85265703601756   11.76205065859358    6.92295995771688
C        -3.60306394637061   10.59688561261333    7.62249797458223
C        -2.09405793170114    7.74672780185225    7.44476366246308
C        -3.29460573214328    7.22840243810046    6.97180648837105
C        -3.32081436151514    6.52260771765028    5.78153650402714
C        -2.15962770613492    6.34115796679648    5.04905903571708
C        -0.96444010708218    6.87371668689015    5.50561375742353
C        -0.93281306274303    7.57411254299593    6.69667859547082
C        -3.46493466005410    8.36587678934075    9.89878267521819
C        -4.20059850933210    9.36434530599767   10.53052949444452
C        -5.27806523674789    9.02595204700943   11.32883916065510
C        -5.62222619878929    7.69738735524841   11.51149406003242
C        -4.89002074077522    6.69987362740968   10.88829958203473
C        -3.81236584214900    7.02944974536044   10.08982898356646
H        -1.52306935155436    6.04944202819359   11.51851721788803
H        -0.78260401084825    5.56656856528246    8.97718703556127
H         1.79525770494281    6.22322327994150    8.73012584937690
H         2.64910620134106    7.11557505128853   11.10759992062158
H         0.58491745048905    7.03168986030653   12.81855828277801
H        -0.34928348026591   11.11416122262324    8.38453880146233
H        -0.79122332677178   13.18116498172381    7.10696199818272
H        -3.04066363901418   13.59955503430336    6.18385537040808
H        -4.83914693162407   11.94583735681343    6.52362333359476
H        -4.39118785214464    9.87159268049844    7.76735256867324
H        -4.20668610817463    7.36508043330971    7.53479651477689
H        -4.25453892471490    6.11416766446407    5.42409389161356
H        -2.18626156002350    5.78838025743541    4.12209290244299
H        -0.05862564634695    6.74268462998225    4.93247827995469
H        -0.00260275617666    7.99723795149722    7.06158453638371
H        -3.92332830104185   10.39841775764599   10.39797189866230
H        -5.84274009878241    9.80400690955502   11.82006675355792
H        -6.45557021002557    7.43699691465127   12.14616411959955
H        -5.15338819884159    5.66263733266527   11.03449337075771
H        -3.23712450670452    6.24983924137340    9.60717139050250
H         2.77460881844466   11.15004883136859   10.98927620698632
H         2.27104301556684    9.59631374988294   11.67893210623977
H         2.37048370436836   11.03849451667594   12.70146357105701

