74
CSD_code = SELHIA | q = 0 | S = 0 | Stoichiometry = C38H25F6N2OPRu | MND = 8
Ru        7.58428799907879    3.22852227714321    2.46698908293417
P         5.43971948355014    2.58076271975942    3.05282567466447
F         5.44733302678154    5.56050944793394    4.98185679811074
F         5.83440351929483    7.48590141315624    5.82805472025799
F         5.98386336680419    5.72570561709845    7.04721248711305
F         8.00172398674446    7.40872384927453    7.41828203780639
F         9.03873046465153    5.53401406014955    7.37783868543756
F         9.71869483292722    7.17180544920140    6.16489075431932
O         8.97168358263541    2.03472785736918    4.79969756114014
N         7.01182622201137    8.60062339772623    3.01681075695349
N         5.34107651831654    5.79367674270586    0.34535141654988
C         7.35007220300611    3.30658091241570    0.20792791451537
C         7.62314649963702    1.96104216461378    0.59900081183760
C         8.90530685124017    1.92348428889882    1.18261346542592
C         9.42680272426902    3.25079251335281    1.18610374893846
C         8.47299379253150    4.08487056372116    0.54328694924915
C         7.35476756947504    5.14193862784999    3.19658462964062
C         8.18189386404416    5.58959470947800    4.31750024557878
C         7.71579118824033    6.08162404161750    5.48424388359970
C         6.73403109177256    6.11178070233158    2.46683538618284
C         6.86633746527976    7.48771331824092    2.78156104585495
C         5.95832179068789    5.88447435822970    1.30999573972731
C         9.63409667753027    5.49578632386448    4.02197776737534
C         6.25933249517081    6.21535323424677    5.82520959591462
C         8.61386786268177    6.55168057740862    6.59729835130442
C         8.35139519639955    2.58235191092590    3.99855333005665
C        10.13755157302750    6.20304252833069    2.93226971098681
C        11.48099540322080    6.12689079143606    2.61526708604633
C        12.32967338550280    5.33291053857027    3.36871452750063
C        11.83345976647870    4.63193771640059    4.45449361233194
C        10.49389146987001    4.71581155115873    4.78912472773615
C         4.85596952585958    2.59205027568287    4.77908809755770
C         5.73363430758226    2.84906954431195    5.82370760594013
C         5.29764533519373    2.77750226392918    7.13503295102108
C         3.98066784085100    2.44958263388304    7.40797706155154
C         3.10033084977824    2.19035415092364    6.36898228457086
C         3.53399738896048    2.25379267222650    5.05866336269173
C         5.17855054303982    0.79942164722381    2.72726633257507
C         3.96911531639291    0.27073051046949    2.28889546611629
C         3.83029554034635   -1.09689296306051    2.12777446345515
C         4.88591667469486   -1.94668134287092    2.41260840722183
C         6.08740948123198   -1.42675981037280    2.86691980555206
C         6.23175721628309   -0.06123645074984    3.02432505155118
C         4.11155915351657    3.39843668916454    2.12678572659372
C         3.38956201994392    4.44410160031915    2.69436743125425
C         2.44516142176988    5.11653540703494    1.94015615045947
C         2.22305632645950    4.76048069989684    0.62065755988882
C         2.94701990150027    3.72633614632856    0.04921520037877
C         3.89319520919063    3.05099949060894    0.79475381148496
H         6.52988275116565    3.62859588383960   -0.41762554186727
H         7.02422861317342    1.09629857558875    0.34177292144691
H         9.45195952903112    1.03235926969332    1.46375025293015
H        10.44604309712440    3.52652282524548    1.42350628987432
H         8.63170395770464    5.11807069023578    0.26387557084488
H         9.48247014918967    6.84162318953803    2.35779901560190
H        11.86445249473662    6.68948004198778    1.77714049336288
H        13.37713671072084    5.26797423825521    3.11471372318127
H        12.49144631701778    4.01975154383251    5.05217823443208
H        10.11993090402392    4.17217939773157    5.64227298842152
H         6.75509284729841    3.12914992376807    5.59880935671383
H         5.98339141419667    2.98972386559228    7.94064992944477
H         3.63835376241675    2.40006372049248    8.43043837734253
H         2.07200621691207    1.93773200957559    6.58141172279846
H         2.84692002002327    2.05126852731205    4.24924265269365
H         3.13877907183392    0.92372865173769    2.06154567616892
H         2.89109783711248   -1.50006373383027    1.77875807930130
H         4.77214371036567   -3.01243093254034    2.28300957298439
H         6.91080077942765   -2.08624856364868    3.09774882870517
H         7.16829391056243    0.35394185748183    3.38045142894427
H         3.57497607120127    4.72764598328749    3.71915424466614
H         1.88948299434417    5.92967516733928    2.38253927896227
H         1.49266517588994    5.29509345506751    0.03253674224204
H         2.78089173126005    3.45472177310658   -0.98275630089820
H         4.46743400776252    2.24908526923291    0.34832718647666

