74
CSD_code = SELHEW | q = 0 | S = 0 | Stoichiometry = C38H25F6N2OPRu | MND = 8
Ru       -0.24694731843860    5.38295086412134    4.49055448470524
P         0.20580004983784    6.10480464521795    6.61891119299715
F         4.29294861753805    7.88455313696857    3.73742901973732
F         5.70788228120811    6.48611734238576    2.95790584778207
F         4.62085216373563    7.76548049086970    1.61525940493209
F         4.92284312526469    4.30816635130898    1.89372851685147
F         3.87902385078986    5.39560098362117    0.36016477069166
F         2.84454473265189    3.94415253347219    1.56465503593432
O        -1.29145014339150    8.01645564398950    3.55547377267700
N         0.52131200762175    5.69460550998254    0.48331973487127
N         1.72804669031051    9.12993735520251    2.59914192852041
C        -0.23776213385726    3.17333527646415    4.79813678594977
C        -1.51485041815711    3.67410449908314    5.20017542530442
C        -2.14347273215326    4.23812788125904    4.07199090893722
C        -1.26134718049011    4.09471644624510    2.95955931853900
C        -0.10875477728531    3.40328785825982    3.40987665751149
C         1.61425887974150    5.81986166515390    3.79182891820553
C         2.88283002815220    5.39275120043448    3.93476341260892
C         3.40120649813214    5.98550400171309    2.63008088916571
C         1.95338580707727    6.55966672616859    2.45160072396255
C         1.18293610187598    6.08608683390397    1.32898206270559
C         1.83928998298012    7.99550245536699    2.52354233117624
C         3.64849088501353    4.59480562208224    4.89558858462859
C         4.50729946782094    7.03089284800027    2.72837608570527
C         3.76772617135934    4.91646796210123    1.60298656742393
C        -0.82724095815620    7.03867218927699    3.94234316961799
C         4.52310057495906    5.21643952360464    5.78198020762176
C         5.24639348677939    4.45844503840407    6.68457425168506
C         5.11481358216338    3.07979429929167    6.70184557228017
C         4.25774135516630    2.45572762883310    5.81083188371006
C         3.52597497855625    3.20813861554463    4.90985946482432
C         1.68583714597024    7.12488909699450    6.90116807710155
C         1.84684508763034    8.19108272022187    6.01915052594855
C         2.91320905979088    9.05735856623448    6.15961486061787
C         3.82793010226088    8.86128713562193    7.18331163866449
C         3.66579793056387    7.80823360283787    8.06817915506116
C         2.59583999215205    6.93904478277922    7.93493419952784
C         0.35531788971491    4.75426224389217    7.82808329816660
C         1.46763347599193    3.92129198362811    7.72751704952675
C         1.60959437866721    2.84404109416569    8.58067512279294
C         0.63549065888999    2.58207885940335    9.53227569860725
C        -0.47831502702570    3.40002549815811    9.62660619618799
C        -0.62402285317770    4.48393803545451    8.77742556078371
C        -1.07531526881950    7.15924426621911    7.37765808831965
C        -2.35019890810044    7.19570703963692    6.82514871983838
C        -3.33799184583916    7.97292227653449    7.40306016610575
C        -3.05647545900525    8.71791302520717    8.53621335688039
C        -1.78754153102561    8.68210270757313    9.09327153618884
C        -0.79785290132089    7.90555615499556    8.52015259763942
H         0.38792861499592    2.52309706490319    5.39568264605064
H        -1.97430000708691    3.50596940639507    6.16695604923978
H        -3.16917600778426    4.57952954541325    4.01777609034209
H        -1.50708551316175    4.29646848671550    1.92568594844949
H         0.68219396163464    3.03668544026644    2.76873982312995
H         4.62263189316258    6.29123104560936    5.76877593322390
H         5.91922557974652    4.94729187943606    7.37293329266423
H         5.68632730712676    2.49103681105209    7.40415086247939
H         4.16133580690085    1.37978843413222    5.81282076358703
H         2.86348019623700    2.72472424594924    4.20713653719200
H         1.12295029387848    8.32820292657172    5.22310902872945
H         3.03467192161670    9.87412717475474    5.46593896495957
H         4.66823415906952    9.53052888194850    7.29045952118574
H         4.37603109603175    7.65964094517550    8.86855759687839
H         2.47457739052347    6.12083199682548    8.63068325042492
H         2.21307871483628    4.13185214094564    6.97363008927743
H         2.47869586003570    2.20784989865008    8.49958730820805
H         0.74275759224865    1.73833550393411   10.19750909866425
H        -1.23954043556241    3.19279588586648   10.36439581152479
H        -1.49552421218828    5.11954843374612    8.85227454747669
H        -2.55778192831452    6.61291474909374    5.93451898822110
H        -4.32581596737194    8.00133167424425    6.96775864312399
H        -3.82511114239648    9.32922368277095    8.98476734531649
H        -1.56889763583724    9.26401704183060    9.97633094222446
H         0.19305487753533    7.87694418588094    8.95130813820592

