52
CSD_code = SELKAW | q = 0 | S = 0 | Stoichiometry = C24H21Cl2NO2PRe | MND = 6
Re        1.53545981855192    9.73830903395289    7.98902516592106
Cl        0.80201915562085    9.39267878258988    5.80652371667311
Cl        0.28254340372261    8.00711334903138    8.76627672413954
P         2.62983633639351    9.73665665825479   10.20666932704002
O         3.06329491766487    8.66376907331804    7.58201800333391
O         0.57142336401365   11.04753540840997    8.31252893301232
N         3.07150980358249   11.15250493212389    6.77029340216944
H         2.53975559886014   11.14306176771549    5.89214833622507
H         3.23187966380618   12.11608337294819    7.05037021509062
C         4.20059893533445    9.05658333603509    7.06264567497372
C         4.28475459869872   10.40377599271312    6.64373937887172
C         5.47674743038106   10.91616790597679    6.17562885613101
H         5.53121844015253   11.95238752986780    5.87304790113809
C         6.59349765928468   10.09906663132872    6.08732475903470
H         7.52316253930518   10.50157896586941    5.71686171612045
C         6.51048746931996    8.76944075108477    6.46456764199514
H         7.37930916531616    8.13370562480074    6.38369503509067
C         5.33081575300859    8.24385517368631    6.95416540445126
H         5.26617841525618    7.21153237624152    7.26276917160876
C         4.31610296489171   10.37618458611003   10.02769472816158
C         4.44580760760539   11.72279935684864    9.68958215793517
H         3.55405961856531   12.33489390584106    9.63572652304877
C         5.69325882411179   12.25438152270249    9.42988656443780
H         5.79410652091879   13.29887544876366    9.17371430792188
C         6.81704621285767   11.44365871118464    9.49095583746904
H         7.79122502200094   11.85647714945797    9.27730655542853
C         6.69079621117558   10.10583700503677    9.82233471597065
H         7.56638522141919    9.47593034255610    9.86780738100860
C         5.44392847410065    9.56808419825293   10.09182270512054
H         5.34495014207298    8.52330521532990   10.35028602613218
C         1.84779381892079   10.81763003796628   11.43385451606792
C         0.46244519894049   10.94613402401829   11.39472691386177
H        -0.09432441057548   10.43716956365658   10.61806677279690
C        -0.18051049321667   11.73667155276422   12.33024570578448
H        -1.25423701888504   11.84060157974488   12.29820452370300
C         0.55331400107582   12.39910992754478   13.30161369086959
H         0.05086670141209   13.01915990691640   14.02905437668208
C         1.93294047507901   12.27236268771929   13.34028441572756
H         2.50356950118827   12.78986956410085   14.09750734801264
C         2.58433411368769   11.48218051707559   12.41035081187997
H         3.66083990268877   11.38058860674408   12.43854254425851
C         2.80052478967287    8.13297415854403   11.04058898384476
C         3.10569584270743    7.00503755320708   10.28186510385692
H         3.21166602280268    7.09200285016609    9.20992533220105
C         3.24709172360345    5.77496123281271   10.89592390011093
H         3.47831533213267    4.90203822806228   10.30383974064978
C         3.08096364887855    5.66004085651515   12.26680420178759
H         3.18672972971045    4.69756656183150   12.74476060133915
C         2.76779235323005    6.77770456733722   13.02229456788489
H         2.62756409399988    6.68767338635814   14.08935773318826
C         2.62442724204656    8.01278297445619   12.41544762064751
H         2.36843814293733    8.87970555442207   13.00702372920277

