86
CSD_code = SELKEZ | q = 0 | S = 0 | Stoichiometry = C33H42O3PS6Tc | MND = 7
Tc        7.71911047113691    4.45594401802719   23.39911062367199
S         8.10951279061391    6.38890952088440   24.89524083871708
S         6.09629684757232    6.36793232142485   22.89703589499665
P         7.71840042929749    4.45639030106066   21.01852388122193
O         6.26404206439827    8.19602999667962   24.85651878355473
C         6.72911774024767    7.11146119574072   24.27739457639787
C         5.01640352392445    8.74573591516174   24.44110011883883
C         3.90377761642012    8.36750753946146   25.41886009954951
C         3.50650673817359    6.89105016890502   25.37575667918576
C         2.74493562954072    6.50711989944798   24.11311102705253
C         6.13300231577999    4.86805271904050   20.21263959075488
C         4.96821820181178    4.32782144013653   20.75186326495971
C         3.73913857488161    4.62362945599072   20.19500097922382
C         3.66166988470587    5.46409696304558   19.09551557640961
C         4.81652947456756    6.00406344122050   18.55563485036255
C         6.05068321463370    5.71101959284989   19.11021250586695
H         5.03724118925268    3.68359505239866   21.61821804163345
H         2.83919488290818    4.20638651674772   20.62205860098734
H         2.70070805051817    5.70197152412391   18.66359091210430
H         4.75752378552433    6.66225315907620   17.70093131210246
H         6.94897824073909    6.13998082804157   18.68997566834510
H         5.16544312454559    9.82916163750430   24.44494065748449
H         4.78777262812126    8.41166691238146   23.42527161964274
H         4.24604095397672    8.61910459957355   26.42508182048820
H         3.03414757536856    8.98661940411374   25.18997823027880
H         4.39646200959334    6.26481776477358   25.46661263233605
H         2.87826700001623    6.68402317102158   26.24500454313077
H         2.42808820304085    5.46924065680867   24.17732967237078
H         1.86217515823491    7.13232647724597   23.99344135348064
H         3.36794598054233    6.60841058437720   23.22784184528366
S         5.84966833684207    3.82838547361126   24.89554824228811
S         9.19636161303754    3.15161165400252   24.89558021903763
S         6.87501679816172    2.09441353554579   22.89828175369907
S        10.18649620639696    4.90579907811982   22.89791758488573
C         8.15458653339752    2.87748592884073   20.21261719795515
C         8.86784041546206    5.62340483586725   20.21262887011053
C         5.91310149040709    2.27171630687511   24.27737647128228
C        10.51267542268623    3.98574759112419   24.27839367799495
C         9.20440403974013    2.13833596015035   20.75200748352259
C         7.46605892319673    2.38520316320243   19.10971974358940
C         8.98396947580897    6.90174805826987   20.75271762243386
C         9.63749746213547    5.27357179259423   19.10897761953661
O         5.20701028490797    1.32661684121165   24.85710185817529
O        11.68414499059499    3.84628271313743   24.85806778967847
C         9.56259163340792    0.92603075217249   20.19493759249347
H         9.72764194683237    2.51978533584819   21.61864729616588
C         7.82919149245759    1.16990760741303   18.55492850860738
H         6.64581517190047    2.94906731168926   18.68925127104967
C         9.85474285902865    7.81806424652400   20.19556212186289
H         8.39278967161070    7.16384136766550   21.62000596774436
C        10.50836253816172    6.19567318046711   18.55407837732172
H         9.55853490979279    4.28158164592935   18.68795282655535
C         5.35509013867206   -0.02869590430981   24.44173634649201
C        12.78402235353146    4.65170059864804   24.44229470668786
C         8.87376217985303    0.43923248390796   19.09503934842192
H        10.37355349879994    0.35487667388140   20.62214002670447
H         7.28894036261271    0.79013878541200   17.69986966907809
C        10.61977336063553    7.46526588448615   19.09487712487669
H         9.94467185276133    8.80563096854668   20.62334503151705
H        11.10662711652831    5.91795445450572   17.69840677723211
C         6.23924307422078   -0.80309063005443   25.41927434757662
H         4.34234577820307   -0.44144594414985   24.44574531348354
H         5.75857491334659   -0.05958509352023   23.42583379700338
C        13.01250977094250    5.80506085433513   25.41930926368563
H        13.64775845402272    3.98088439876607   24.44660163702746
H        12.60898544286287    5.01613917805367   23.42623425003170
H         9.14808988569838   -0.51190441125525   18.66296448118421
H        11.30631719357593    8.17837354913343   18.66274498759462
C         7.71655952060349   -0.40907603838983   25.37571964120938
H         5.85050169089327   -0.63241102698202   26.42558820040849
H         6.13773391256970   -1.86576956323843   25.19046644485427
C        11.93248943636735    6.88731729061558   25.37539703288713
H        13.05922095250931    5.38352066321276   26.42580548657889
H        13.98349083539954    6.24848696146630   25.19018984849620
C         8.42939373932825   -0.87681663357150   24.11288201209096
H         7.81403178371596    0.67475794475342   25.46647109131143
H         8.21021307083923   -0.84962149693933   26.24483352584856
C        11.98112761495731    7.73818819537770   24.11234088717319
H        10.94517441030003    6.42971317476097   25.46611671658812
H        12.06696282166877    7.53535426578858   26.24436632355304
H         9.48669117220490   -0.63238082694995   24.17676551598701
H         8.32919616811797   -1.95391275198359   23.99333398145208
H         8.02994173686317   -0.38795587537200   23.22769005273544
H        11.24037140545551    8.53126118026083   24.17577820624250
H        12.96383126380790    8.19043926105281   23.99300924253630
H        11.75806657224924    7.14747227238085   23.22723238512593

