79
CSD_code = SELKUP | q = 0 | S = 0 | Stoichiometry = C44H28F2N4Ti | MND = 6
Ti        0.00000016039150   -0.00000048993344    0.00000000000022
F         0.00000031882870   -0.00000123919149   -1.74333221182000
N         1.98151492896257   -0.49353667087128   -0.00000000000001
C         2.49912470435746   -1.74952582534380    0.00000000000012
C         3.93728046785010   -1.67918847788783   -0.00000000000064
C         4.26500128947943   -0.36438762681130    0.00000000000167
C         3.02810215018083    0.37265362347559    0.00000000000079
C         1.76713465053208   -2.93988342324958   -0.00000000000075
C         2.53407437674274   -4.21270680320530   -0.00000000000031
C         2.89703503572759   -4.81260275462979   -1.20010519233352
C         3.61395091188235   -5.99612797275263   -1.19840599024702
C         3.97380869869020   -6.58961424105132    0.00000000000016
H         4.59439421531320   -2.52763063192422   -0.00000000000098
H         5.24338128464621    0.07656353536342    0.00000000000148
H         2.61368160548712   -4.34445528808987   -2.13146214813092
H         3.89296728207902   -6.45641717691981   -2.13489537924612
H         4.53383615550575   -7.51298874942127    0.00000000000034
F         0.00000031882861   -0.00000123919145    1.74333221182043
N        -1.98151486479751    0.49353735607733    0.00000000000009
N         0.49353827121927    1.98151388498703    0.00000000000003
N        -0.49353863683624   -1.98151358618496    0.00000000000091
C         2.93988505934749    1.76713615103528   -0.00000000000012
C         0.37265207223723   -3.02810032734107   -0.00000000000095
C         2.89703503572722   -4.81260275462956    1.20010519233317
C         3.61395091188208   -5.99612797275238    1.19840599024713
C        -2.49912449710237    1.74952624177464    0.00000000000006
C        -3.02810216005327   -0.37265290738984    0.00000000000003
C         1.74952674669142    2.49912453596102   -0.00000000000084
C        -0.37265227175961    3.02810036902914    0.00000000000062
C        -1.74952726809483   -2.49912428981610    0.00000000000047
C         4.21270431888564    2.53408223745528   -0.00000000000007
C        -0.36438832750133   -4.26500000079630   -0.00000000000231
H         2.61368160548662   -4.34445528808951    2.13146214813037
H         3.89296728207866   -6.45641717691933    2.13489537924638
C        -3.93728029734171    1.67918921694653   -0.00000000000015
C        -1.76713463365966    2.93988359185301    0.00000000000051
C        -4.26500126566683    0.36438849570943   -0.00000000000048
C        -2.93988538054360   -1.76713561507634    0.00000000000030
C         1.67918877037397    3.93728020245422   -0.00000000000286
C         0.36438794496833    4.26500022166109    0.00000000000213
C        -1.67918930521002   -3.93727986492554    0.00000000000221
C         4.81259540884774    2.89704963381242   -1.20010518088352
C         4.81259540884750    2.89704963381267    1.20010518088343
H         0.07656301309835   -5.24337993577951   -0.00000000000265
H        -4.59439406530696    2.52763141074978   -0.00000000000018
C        -2.53407451461362    4.21270632228084    0.00000000000019
H        -5.24338144171127   -0.07656253782227   -0.00000000000051
C        -4.21270459694012   -2.53408202266127    0.00000000000011
H         2.52763056036051    4.59439452696841   -0.00000000000279
H        -0.07656350432281    5.24338019013174    0.00000000000248
H        -2.52763113216344   -4.59439409171355    0.00000000000223
C         5.99611500345710    3.61397458346497   -1.19840641750344
H         4.34446717050607    2.61366753171462   -2.13144993325055
C         5.99611500345694    3.61397458346510    1.19840641750343
H         4.34446717050576    2.61366753171490    2.13144993325045
C        -2.89703563412317    4.81260197019473    1.20010511984420
C        -2.89703563412292    4.81260197019458   -1.20010511984401
C        -4.81259549953611   -2.89704968780158    1.20010520036688
C        -4.81259549953590   -2.89704968780160   -1.20010520036676
C         6.58959935452243    3.97383550715329    0.00000000000001
H         6.45640604736140    3.89298506314696   -2.13489323553904
H         6.45640604736112    3.89298506314713    2.13489323553909
C        -3.61395183416514    5.99612706330865    1.19840603879872
H        -2.61367987178234    4.34445639555157    2.13146112115811
C        -3.61395183416497    5.99612706330847   -1.19840603879884
H        -2.61367987178203    4.34445639555131   -2.13146112115781
C        -5.99611492010309   -3.61397484588761    1.19840641870286
H        -4.34446701463905   -2.61366789823388    2.13145003090953
C        -5.99611492010290   -3.61397484588762   -1.19840641870293
H        -4.34446701463872   -2.61366789823394   -2.13145003090937
H         7.51297283453368    4.53386471189108    0.00000000000006
C        -3.97380949093567    6.58961346937595   -0.00000000000013
H        -3.89296633665048    6.45641721504659    2.13489487835917
H        -3.89296633665022    6.45641721504626   -2.13489487835938
C        -6.58959926408565   -3.97383572178636   -0.00000000000008
H        -6.45640591074920   -3.89298549530509    2.13489329336831
H        -6.45640591074888   -3.89298549530507   -2.13489329336845
H        -4.53383586831177    7.51298869264936   -0.00000000000025
H        -7.51297276678863   -4.53386484884977   -0.00000000000016

