22
CSD_code = SELLUQ | q = 0 | S = 0 | Stoichiometry = C11H6FeO4 | MND = 7
Fe       -0.07208650325150    0.95756362111765    0.61547701672627
O        -2.42983914823692   -0.20702333921140    1.84020381822854
O         0.81947542169098   -1.74993145608625   -0.12235423578015
O        -1.76781507832175    1.90269008487530   -1.59876131822350
O         1.22089075506831    0.40152141189036    3.28113723202139
C        -1.50182857415286    0.27593892895295    1.37450201895217
C         0.53941899487641   -0.67524106234645    0.14784364966919
C        -1.08392352262051    1.59356542397837   -0.73406806914855
C         0.92154451962018    4.39881304827886    0.57428631736099
C         1.42197658937476    4.92472507784291   -0.58781733997799
C         2.21039114090242    4.14712100556232   -1.44208892690212
C         2.53739601834700    2.85764754677591   -1.09186928092644
C         2.05863731133392    2.29607951607917    0.09662357801280
C         1.20040311860712    3.06225299558846    0.93903861950606
C         0.58350865417459    2.43856979023683    2.07830463097028
C         0.83661531502534    1.07031236249126    2.37703736422106
H         0.05568962856670    3.05421264909476    2.79762755088407
H         2.55059551413392    1.40321763669895    0.47681430690010
H         3.19529981442007    2.27547906228817   -1.72084511197496
H         2.59015831693192    4.57558006807628   -2.35671715752694
H         1.20433203557869    5.94879239232150   -0.85244805467299
H         0.30065967793084    4.99721323549385    1.22517339168125

