137
CSD_code = SELMOO | q = 0 | S = 0 | Stoichiometry = C54H72N6O4Pd | MND = 4
Pd        4.52845257656268    5.92525491111380    4.11713780998889
O         5.03960173389027    7.19607660549168    1.76467324490920
O         3.68074056447118    5.52962050533414    1.63923487939887
O         4.94334898645404    4.36082948449737    6.22657192513047
O         4.21303116828867    6.30584786813886    6.78884287102735
N         4.42091046915038    6.27021515570628    2.29552717205124
N         4.57145686225398    5.49971717361992    5.92696653866974
N         7.33329244064639    4.57823622822971    3.37650026137470
N         7.61709583355640    6.39336073878122    4.47162577499196
N         1.47024562472862    5.57226289026046    4.74767494151303
N         1.73945487839789    7.31473605458620    3.53139187760928
C         6.65626251570299    5.58473263245147    3.97309383776498
C         8.86559842378068    5.90479951519537    4.18797380182194
H         9.75583090536172    6.41277738283189    4.49621641767498
C         8.68661850818903    4.75903866050242    3.50011801142614
H         9.38907815862792    4.06056554154452    3.09510490399166
C         7.50307834483677    7.61012312605378    5.20883185794073
C         7.52693842149811    8.81909864915915    4.50546471147294
C         7.60062142158946    9.99482164717815    5.24024699723651
H         7.64345647864134   10.94237442653529    4.72683883279133
C         7.63549409204578    9.96683211074736    6.62129295536054
H         7.69712972044975   10.89131688249854    7.17673890909738
C         7.60564764270726    8.76206941820048    7.29562855425008
H         7.64614331240546    8.75703468337252    8.37280291885214
C         7.55356091758295    7.55781778800708    6.60531240201362
C         7.53386987556117    8.84835120750546    2.99510234414939
H         7.14896494204703    7.89732791915248    2.61779326682449
C         8.96707225988399    9.03946321987552    2.48863418535131
H         9.38005815622706    9.97446891534831    2.86224533447739
H         8.97469828983119    9.06776104982221    1.40163783542718
H         9.61227938487173    8.22589701389540    2.81350841820594
C         6.62139468328557    9.93328670723460    2.42659820757882
H         5.61937997129425    9.82717218557341    2.82992708729093
H         6.55429321668663    9.81399127152162    1.34867597024898
H         6.99470214428368   10.93217348285223    2.63849428213536
C         7.63661830527101    6.24518421414413    7.35063672928380
H         7.28527312657885    5.43887830884472    6.69918822915706
C         9.09607504221350    5.96291376797936    7.72515968623529
H         9.72406449302584    5.88325062411504    6.84048447582607
H         9.16218961553383    5.02749116332077    8.27599735089689
H         9.48580583505285    6.76240462144177    8.35206027666047
C         6.76325337070289    6.22562955754472    8.60496902619980
H         7.15068222857213    6.88686148716080    9.37592454020841
H         6.73245311803319    5.21534522575291    9.00633734441654
H         5.74733555676492    6.52265604053404    8.35819247062853
C         6.85596035675462    3.40871871542212    2.71226334692682
C         6.65794046006174    3.44714643526057    1.32875206436915
C         6.32224630409705    2.26106416206809    0.68858343451215
H         6.16231524075678    2.25804372403261   -0.37742856575322
C         6.21686348219619    1.07843736681615    1.39401125784777
H         5.96967378238923    0.16358889451727    0.87559291850575
C         6.44938716422459    1.05707230466690    2.75529921927980
H         6.39524885899768    0.11963258997965    3.28672483176368
C         6.77055259015947    2.21941932513612    3.44398852176134
C         6.89482468957107    4.70603940221441    0.52734801789285
H         6.84176926413024    5.57332359282841    1.19204913366363
C         8.30126777964823    4.65655793616443   -0.08065443869645
H         9.06312833424886    4.59541422626192    0.69382392629836
H         8.48218591597944    5.55369885109966   -0.66807742799698
H         8.40189974956074    3.78969553384416   -0.73075880128545
C         5.85316814544496    4.91050013709596   -0.57232741535756
H         5.96579999687247    4.18450481887955   -1.37372114197220
H         5.96946062917669    5.90517276410612   -0.99661534731305
H         4.85042296418442    4.83263900381158   -0.15953685268317
C         7.09125988396230    2.16498426817229    4.91998761737368
H         7.14361117590817    3.18148125573227    5.31850288259704
C         6.01486878676161    1.44152958049034    5.72823289362802
H         5.08949530333537    2.00768236303999    5.69526793540202
H         6.32698606977924    1.38155481959553    6.76797843332445
H         5.84129686597358    0.43202381618370    5.36510887525072
C         8.45450740198619    1.49186364346699    5.11416222325669
H         8.42575199382699    0.46306622854656    4.76211241309838
H         8.72197994251336    1.48818651334311    6.16825944974228
H         9.23341089252461    2.01804464101456    4.56561616228007
C         2.42123443985492    6.35323727175319    4.19394501370524
C         0.21771386265046    6.03176863567054    4.43686847487626
H        -0.66874574280547    5.53605219908966    4.77341307206218
C         0.38755267400903    7.13289507432999    3.67414433447711
H        -0.32275942288420    7.80561836895673    3.24138526270249
C         1.68378562910546    4.43768604032771    5.58218911252448
C         1.48893152463405    4.55837776437866    6.96180565153571
C         1.72705554008759    3.43832512343456    7.74632812382334
H         1.60135186037919    3.50236511335542    8.81549408286357
C         2.12951071025636    2.24395127766279    7.18109854228706
H         2.32906161508062    1.39109744478188    7.81272088472382
C         2.26225777768561    2.13241782578774    5.81154218395243
H         2.55045916486847    1.18742388774789    5.37832871128548
C         2.03044915348926    3.22429652574350    4.98593904931055
C         0.97889470887325    5.83285580654488    7.59459570362464
H         1.01105848282788    6.63989220464708    6.85636027468222
C        -0.47720679109919    5.63333501402815    8.02875954683440
H        -1.10251238302252    5.34000751847087    7.18775590368860
H        -0.87250272848455    6.55695115407033    8.44587281575988
H        -0.54381797038732    4.85654231775417    8.78669194742064
C         1.83475296799540    6.27305149457357    8.78175702104306
H         1.77018606954526    5.56578518793920    9.60382195974655
H         1.49619440604974    7.24332315451779    9.13907476895535
H         2.87105735999757    6.35835438646753    8.46803921426839
C         2.14503656971136    3.08848583038783    3.48685599890292
H         1.86678839758306    4.03070919018081    3.00468271724201
C         1.20959087380284    2.00026670569558    2.95731893465627
H         1.48304062458432    1.02272754904300    3.34591410344921
H         1.26807672752121    1.96508558696865    1.87211247280735
H         0.17935511883049    2.20649130288054    3.24199411658232
C         3.59783896271338    2.80150630194979    3.11476057292949
H         3.89954225505263    1.81527933564129    3.45630545208572
H         4.25105378891959    3.55404405884647    3.58817737302662
H         3.72738842302930    2.85677633826580    2.03694238182546
C         2.24864826941021    8.49489133831978    2.91356430773255
C         2.74574439567791    9.50663006646965    3.74199271480170
C         3.15157333189960   10.69639633021514    3.15315398266079
H         3.55271812451041   11.48587384228087    3.76915567207139
C         3.04345071634581   10.88510010733883    1.78938154905733
H         3.35943012505890   11.81844765813384    1.34745055725176
C         2.53737227571338    9.88017139835247    0.99049957515611
H         2.45813381483301   10.03857412196158   -0.07296896488971
C         2.12994559278771    8.66758314634027    1.53188863046018
C         2.89460445787558    9.31313180653430    5.23147433854552
H         2.36474405534100    8.40930677290125    5.54631196632583
C         2.32389831684996   10.48068729594245    6.03627313873358
H         2.89260261277924   11.39237383781925    5.87525006241856
H         2.36407668203436   10.24195763085385    7.09640308057935
H         1.28732190385460   10.66727873337681    5.76166730464877
C         4.37784881974210    9.10087334712633    5.53351217470150
H         4.76933710482916    8.28668586532002    4.89793132954836
H         4.51704355984040    8.82170782931851    6.57429100182449
H         4.94457426012121   10.00539505842970    5.32878833197193
C         1.57850019914117    7.59403276787754    0.62361086116879
H         1.51513605719132    6.65291800840613    1.17777978621874
C         0.17882964654063    7.97601144491194    0.13373544357404
H         0.21287902727496    8.91136265649350   -0.42087267492734
H        -0.51429433559623    8.09931924900998    0.96329771378475
H        -0.20836268566976    7.19982739118494   -0.52239205354222
C         2.50771767656758    7.35688400458595   -0.56935084543330
H         2.21825954128510    6.44379632774658   -1.08366821042273
H         3.53155724238373    7.24658880281025   -0.22453713789623
H         2.46399691583811    8.17945519042928   -1.27884445346123

