73
CSD_code = SELPOR | q = 0 | S = 0 | Stoichiometry = C30H26Br2CdN6O8 | MND = 6
Cd        7.18954393755023   14.86375340988599    6.55680115833908
Br        7.08805153854874   15.77523630267971    8.89218695810381
O         4.78174986108001   14.57695241214208    6.60684553164934
O        -1.13076065382214   14.69286050843416    8.89346741337553
O         6.47998766581702    9.41924826416173    7.80028357785456
O         8.00568634366880    7.94479483250253    8.13938470195803
N         6.19439630623822   12.62732692998501    7.87031253783935
N         4.89597760053163   12.89140924279283    8.11405613619627
H         4.43802154481983   12.41117804659912    8.88863259039253
N         7.63886646728670    9.08782048040699    8.01020804175706
C         4.23619853420228   13.88999400127250    7.45646475606990
C         6.77879237392389   11.75425300141234    8.58069665054193
H         6.25056536159291   11.22343097513333    9.38115298761717
C         2.82660885056939   14.07786429089729    7.84334731641416
C         2.00985315134871   13.03444844698730    8.28600260892708
H         2.38653938437715   12.02306134305895    8.33729938743668
C         0.69711264572466   13.27627775032591    8.61575027902890
H         0.05047277703002   12.48074451882873    8.95007754371931
C         0.16247324911986   14.56769509329493    8.52718398046255
C         0.97199525892701   15.60759445782837    8.07179188392749
H         0.59005790371515   16.61165119103011    7.98392828024040
C         2.28367614497285   15.35515202817195    7.72582044943131
H         2.91677261082200   16.15459781148588    7.37256941877895
C        -1.73783905919959   15.96464257572066    8.83530428056837
H        -1.75703166309579   16.35225319827745    7.81249622492014
H        -1.23046655732745   16.67985347443673    9.48915365387105
H        -2.75834691958639   15.81795832462982    9.18439733390518
C         8.19418187578083   11.44131334829133    8.38575339885930
C         9.16784601619269   12.42610999410093    8.51671230308224
H         8.87366800329896   13.43114728849143    8.77796081925625
C        10.50601196969365   12.11418553705136    8.34422916027832
H        11.24558634817675   12.89461610796515    8.43956560804360
C        10.90066830579286   10.81610305172082    8.05020945993990
H        11.94476762191339   10.58521078383095    7.90633453587743
C         9.95337181024997    9.81542323548135    7.95486254700371
H        10.22214089299091    8.79369238104682    7.73543250216667
C         8.61159202879708   10.13095031403163    8.12448842855124
Br        7.29135954496829   15.77446654961526    4.22126906299590
O         9.59715473566036   14.57660497772576    6.50712463918533
O        15.51012593035160   14.69302708676772    4.22213280088097
O         7.89892275379919    9.41823148464545    5.31438362741144
O         6.37293346419709    7.94409034997045    4.97537388364698
N         8.18483011589784   12.62668749708956    5.24395388076004
N         9.48326971792845   12.89071070763095    5.00030734717340
H         9.94138758484293   12.41017160678817    4.22601132970753
N         6.73998791552354    9.08705451454755    5.10451910751940
C        10.14289217617123   13.88949048315025    5.65773969738599
C         7.60050787712005   11.75336981199530    4.53380770091104
H         8.12884840272871   11.22225025297941    3.73361812331414
C        11.55253821252931   14.07745400987253    5.27112681701870
C        12.36955174931631   13.03415927388927    4.82867238956689
H        11.99301390329185   12.02272307449543    4.77722526676700
C        13.68235521608394   13.27617337405420    4.49928197202624
H        14.32917469335601   12.48072173549155    4.16510662941986
C        14.21679612352856   14.56765556019793    4.58801168400115
C        13.40700587045855   15.60744420799507    5.04319080767623
H        13.78878111072025   16.61155030476936    5.13118383438316
C        12.09527483179919   15.35481868536497    5.38880812383534
H        11.46197015169048   16.15417212005758    5.74188680620770
C        16.11698423754982   15.96490101717620    4.28058426608741
H        16.13575518834353   16.35246095017381    5.30341894415805
H        15.60972681945408   16.68006274282589    3.62659443694406
H        17.13763936364703   15.81841037239216    3.93185072287253
C         6.18508975811535   11.44060025971193    4.72868017462966
C         5.21157292766598   12.42554888160024    4.59762361636229
H         5.50593688676850   13.43053882410575    4.33640834754457
C         3.87334631308176   12.11385248132965    4.76999790885167
H         3.13392109861758   12.89442351391395    4.67472816894954
C         3.47845968374119   10.81585061677207    5.06410319485316
H         2.43431652546558   10.58514000792622    5.20795410915558
C         4.42559342392839    9.81502568804253    5.15957014439486
H         4.15665244484520    8.79333815608819    5.37899803226490
C         5.76743371509152   10.13031386445786    4.98998795475167

