63
CSD_code = SELRIN | q = 0 | S = 0 | Stoichiometry = C16H32CdCl2N8S4 | MND = 6
C         5.01836824928994    2.28863901491511    0.64624679735634
C         6.44459527693057    0.30243998144006    0.67553315149300
H         5.98900803451024   -0.49046673242106    0.06829748690131
H         6.95592396369224   -0.17131851853881    1.51707049612143
C         7.41907064050494    1.11720733871482   -0.16790023355625
H         8.11525497211610    0.45755092185596   -0.68381490848575
H         7.98686745010370    1.79127981504246    0.47550919204605
C         6.62232663978220    1.94378170900044   -1.17262189261293
H         7.27998432274733    2.60253407592181   -1.74562219848220
H         6.10154516702852    1.27947136955246   -1.87589346612293
C         0.06860205593495    0.64724548628387    4.37602153306937
C         0.63357675058423   -1.51541889880136    5.32381351200965
H         1.21094032480719   -1.28788987022459    6.22963071386434
H         1.02783256450092   -2.43476820210837    4.88661003702421
C        -0.84849911883635   -1.65601905334055    5.65239354510587
H        -1.38795192587999   -1.95647035628422    4.75274604374201
H        -0.99888718774296   -2.41175891754676    6.42200529755773
C        -1.37463076295031   -0.30492009483092    6.12667815153576
H        -2.46176309796659   -0.33015266841397    6.24162071832007
H        -0.92661365607384   -0.04971613929471    7.09719831753532
N         5.41158844253456    1.15857963872976    1.21170181713583
N         5.68403580439038    2.76195334468527   -0.43555667793293
N         0.80616849315750   -0.45383281021485    4.35866956110742
N        -1.03553493830733    0.69914284251170    5.14434799830548
S         3.76971222155640    3.22667080331259    1.26165134022136
S         0.39480729629258    1.96643692327223    3.38240553203796
Cl        3.66568621913204   -0.12331892377010    3.33312812953461
Cd        3.11184609644612    2.30049244758821    3.92868078126058
H         1.70283491510914   -0.41606755020676    3.85804331987796
H         5.23843046796851    3.53455637010579   -0.90586538277088
H         4.83348700385396    0.76502653036458    1.97128338983681
H        -1.55176861751732    1.56327864184856    5.10870500387978
C         1.20506977328311    2.31224789934750    7.21095481902885
C        -0.22117826797199    4.29844556572496    7.18165625324023
H         0.23438625807139    5.09134041017494    7.78892322796552
H        -0.73249555951579    4.77221936125236    6.34011870109195
C        -1.19565320946054    3.48364509706641    8.02505870220761
H        -1.89185131388623    4.14328575216712    8.54097210990563
H        -1.76343904895473    2.80958370211427    7.38162692729497
C        -0.39894422026397    2.65704969248194    9.02979187826539
H        -1.05661209209982    1.99828157952601    9.60276558567767
H         0.12181880000369    3.32134906641361    9.73308698606987
C         6.15487603137476    3.95368051514929    3.48122397517695
C         5.58991232847824    6.11630883575561    2.53336308591572
H         5.01254335541356    5.88876970102283    1.62755343953961
H         5.19566212471396    7.03566358508485    2.97054971457864
C         7.07198673753346    6.25689134088233    2.20477413926071
H         7.61144559773543    6.55733260266484    3.10442177681388
H         7.22238343457776    7.01262660842025    1.43515722133172
C         7.59806698218617    4.90577058999764    1.73049167417995
H         8.68519454515978    4.93097737937151    1.61551469554072
H         7.15001180512150    4.65056808380436    0.75998575540056
N         0.81184835679186    3.44231550764309    6.64550213320700
N         0.53936781961711    1.83890383159958    8.29272533780482
N         5.41731258875583    5.05476044109297    3.49853748780280
N         7.25898929524613    3.90173705066596    2.71285812282357
S         2.45369015904416    1.37419793796808    6.59551410242039
S         5.82857637688691    2.63447960777187    4.47478602164888
Cl        2.55763597133759    4.72414893709648    4.52414649930578
H         4.52063383537241    5.01700106206823    3.99915464384428
H         0.98495713635898    1.06628332037210    8.76301741238420
H         1.38996091872239    3.83587967358416    5.88595388744336
H         7.77519941267006    3.03758674255441    2.74849657590676

