62
CSD_code = SELSEI | q = 0 | S = 0 | Stoichiometry = C26H24B2ClFeN7O | MND = 5
Fe        6.30325001977810    2.87756493099675    3.39363201022753
Cl        7.18815090738141    0.97228088870187    3.72372966794412
B         8.12978127682997    3.84849725667928    5.55992153451461
B         8.06894313033108    5.23724319418749    3.56088288817051
O         7.96544649139477    3.90217076001949    4.11366953378361
N         6.79440029314918    3.36009140757407    6.16069333692324
N         5.78774910365365    2.96038010809747    5.36812232290164
C         4.84609593783122    2.46290190126358    6.15922472780983
H         3.94406057481564    2.04323030249878    5.76215522091259
C         5.23598801756103    2.55712142270352    7.49442072332093
H         4.68675078555211    2.24588075021868    8.35883113711898
C         6.48888001457641    3.12851564435632    7.44460745869225
H         7.17638156942369    3.36899709774028    8.23020061538325
N         6.65548682742030    5.63728585989986    3.04496434914381
N         5.71989482463963    4.68844281997946    2.93909592789667
C         4.64430409880452    5.25749084441973    2.40535538996109
H         3.75424518159197    4.69337275493758    2.21638519187897
C         4.89122388912685    6.60606035222828    2.15562706427832
H         4.22127033990696    7.32504372612307    1.73154311598193
C         6.18988925438003    6.80247414411792    2.57597582678262
H         6.80004549159912    7.68240411603763    2.56161490281541
N         8.32087251555772    5.36385207397010    5.90861547309473
N         8.36247208743585    6.10307246212402    4.81211303824522
C         8.59974785153689    7.36855644421829    5.14419028977614
H         8.66912120715010    8.14532374357217    4.41008849245202
C         8.72413217493513    7.43654792062537    6.52418215409792
H         8.92048278469444    8.30508450371982    7.11833367973123
C         8.54360707009027    6.13238412209606    6.96655315635971
H         8.57012942765006    5.73182427318708    7.95907007214125
C         9.39890005745578    2.99682055422071    6.07865300894546
C        10.67742118699066    3.55142760721474    6.05790184108664
H        10.81403564557689    4.56683915944618    5.70841940932621
C        11.78533236850437    2.83020963626706    6.46514080446107
H        12.76515986031930    3.28660519429063    6.43914517615358
C        11.63913906047492    1.52463100646318    6.90004291197532
H        12.50265177354453    0.95768954898723    7.21812598427713
C        10.38091554255923    0.94865852076023    6.91296523284091
H        10.25834380074615   -0.07512976094465    7.23599631603684
C         9.27730591536530    1.67743916450140    6.50592217061948
H         8.30629707393961    1.20570947839998    6.50182893914721
C         9.10919631809864    5.32087940207527    2.33638423135818
C        10.17320313044156    6.20809777499650    2.22633223710678
H        10.35798394412137    6.92353147816102    3.01617929882337
C        11.01338255122641    6.18519056113108    1.12545190912634
H        11.83601461217921    6.88351011649813    1.06063398445219
C        10.80460839342390    5.26760694455099    0.11136047052575
H        11.46087188372882    5.24834865519506   -0.74672179417277
C         9.75538038657650    4.36770199694265    0.20561960830487
H         9.59350225452624    3.64194642283643   -0.57842837032874
C         8.92198240682266    4.40007377604809    1.30698299039084
H         8.10288505699103    3.68602807907224    1.39021515383646
N         4.76685916834326    2.10687799538484    2.65240872624517
C         4.93305626035031    1.33450481673534    1.56636261147474
H         5.95918980464118    1.15608354029583    1.26868071043521
C         3.88438663515197    0.76848399140456    0.87163049089461
H         4.08428957121661    0.15327585966821    0.00866809749952
C         2.58335944703536    0.99260006148821    1.30228286445206
H         1.74198982958619    0.55795106377865    0.78653808371073
C         2.40283477116665    1.79646889791513    2.42019710137421
H         1.41414249694649    2.01024558471078    2.79588512586457
C         3.50717451318605    2.32628741564691    3.05490484907080
H         3.40320113007636    2.97210962989893    3.91219052261225

