49
CSD_code = SELSOR | q = 0 | S = 0 | Stoichiometry = C24H20N4Ni | MND = 4
Ni       -4.17750765324987   -4.17750243789147    0.80186166939263
N        -3.00660525798090   -2.58607559212708    0.82255146404474
C        -3.39482096373738   -1.27258160934274    0.84536964683368
C        -2.24936168534643   -0.41637278210803    0.93272653555576
C        -1.16234304749482   -1.21500198778824    0.93293726006701
C        -1.63686631092413   -2.56414975553791    0.84545185646055
C        -4.69482329451859   -0.78464780995776    0.80038608401980
C        -4.91776828079166    0.70011541150568    0.72132624530404
H        -2.26529601386086    0.65161344600911    1.01580764168070
H        -0.13867574808019   -0.91008439647689    1.01614922330807
H        -4.96141842840758    1.13233992026585    1.72170804172906
H        -4.11510634688414    1.18305941367080    0.17315717279432
H        -5.84628690207128    0.92725246927875    0.20802625469657
N        -5.76893355201129   -3.00660329697002    0.82254435172873
N        -5.34840517178429   -5.76892841126933    0.82255724002899
N        -2.58607627510939   -5.34840052504532    0.82253135783215
C        -0.78464634443580   -3.66018237816881    0.80043550410197
C        -5.79085569669694   -1.63686622048173    0.84541170333629
C        -7.08242440125148   -3.39481898874126    0.84537612194959
C        -4.96018694953637   -7.08241894060771    0.84537148266635
C        -6.71814164256253   -5.79085341793097    0.84545963465386
C        -1.27258164253438   -4.96018683724870    0.84537193825541
C        -2.56415163974674   -6.71814044804178    0.84539786535250
C         0.70012040653195   -3.43723456775290    0.72142340583454
C        -7.14000061360290   -1.16233705332127    0.93288255968511
C        -7.93863021404130   -2.24935543828694    0.93271414630581
C        -7.57036094610419   -4.69482233619395    0.80043630975227
C        -6.10564610164773   -7.93862968531742    0.93274218906939
C        -3.66018511143503   -7.57035536967747    0.80038042502404
C        -7.19266461788531   -7.14000090564027    0.93294273721289
C        -0.41637536092803   -6.10565310524838    0.93272268762486
C        -1.21500683758836   -7.19267102804806    0.93287506961526
H         1.13231631081243   -3.39358725017965    1.72181796548290
H         1.18308238827945   -4.23989254487261    0.17326516343285
H         0.92727065513320   -2.50871430696472    0.20813330389243
H        -7.44491640795817   -0.13866675101526    1.01606478257890
H        -9.00661466486344   -2.26528519335311    1.01580969077539
C        -9.05512656159460   -4.91776774414052    0.72141786909495
H        -6.08971071800602   -9.00661626993314    1.01583037539176
C        -3.43724290547245   -9.05511785690369    0.72132005478326
H        -8.21633215592176   -7.44491988364467    1.01614902314712
H         0.65161017451895   -6.08972533637392    1.01582848898144
H        -0.91009116504455   -8.21634310505712    1.01606073605880
H        -9.48732230216562   -4.96140765710077    1.72181293578842
H        -9.53808734833207   -4.11511173892266    0.17325459312083
H        -9.28227954327525   -5.84629168543145    0.20813400001305
H        -3.39358125461594   -9.48734612491542    1.72169886148686
H        -4.23991140568303   -9.53805849086410    0.17315836814844
H        -2.50873045009319   -9.28225339583494    0.20800796190542

