35
CSD_code = SELSIL | q = 0 | S = 0 | Stoichiometry = C8H18Cl3N4PZn | MND = 4
Zn        6.49370219817870    1.53432463040579    6.73256367210105
Cl        7.19036982477233   -0.69265846392782    7.37036565335550
Cl        4.55928415330612    2.18656995769997    7.58694299579231
Cl        8.40283592706902    2.54187111382021    6.12792409201618
P         7.00852919717674   -0.70504913070647    4.90208274604125
N         5.96973756197201    0.67372120324915    4.78169567560154
N         7.20495297934615   -0.83668340392968    3.21642949155775
N         8.15847968340385   -2.31212072666836    5.01314666465453
N         5.70854284005278   -1.76599338788336    5.13561084022521
C         6.45461603839088    1.38115193495507    3.59822947189469
C         6.75674173904324    0.34121678973047    2.50504484949224
C         8.25196395588211   -1.67483968489828    2.69649638428396
C         9.08197613531854   -2.14416134477796    3.90053745745785
C         7.29339807344041   -3.48584875266871    4.98447453487684
C         5.99737720733426   -3.06462559564975    5.67872735401203
C         4.51610515336967   -1.05577962028338    5.53746604463236
C         4.57380926441814    0.22870915626244    4.71711047124987
H         8.16386975436992    0.03350650038206    5.18293801089293
H         5.72924596353698    2.12973277048776    3.27603531452059
H         7.38464613926581    1.88849307566395    3.87532145822834
H         7.52969507232161    0.72014953342278    1.82827841874124
H         5.86475149981399    0.11622271895873    1.90473736675027
H         7.83215384018604   -2.53254483554019    2.15026130043108
H         8.89454858443477   -1.12625570534378    1.99820126694908
H         8.63460579492890   -2.24863308718061    5.91479530888169
H         9.78855076009971   -1.35460339031162    4.16939388137482
H         9.63345263745166   -3.06250495223470    3.68421193822645
H         7.07518840981362   -3.72552138280681    3.94295107660358
H         7.75661988322636   -4.34722212225806    5.47070672297337
H         6.13023592094166   -3.03620286151796    6.77006030597981
H         5.18682057562147   -3.75725984227738    5.43752675347346
H         3.62817042476902   -1.64330599728852    5.29033509761139
H         4.49990887679629   -0.83002465657903    6.61306967430661
H         4.28875946222845    0.01055548685921    3.68219298843879
H         3.90815446771163    0.99121407283556    5.12803471636431

