157
CSD_code = SELSOU | q = 0 | S = 0 | Stoichiometry = C70H72O12P2Zn | MND = 6
C         8.86349713026263    4.13246238266287    4.13328253871324
C         8.36431058912978    5.06197914095716    3.22332114530588
C         7.38465097031191    4.65091655887591    2.33212385338804
H         6.98660061346607    5.35943163237523    1.62106545476592
C         6.90215785703850    3.34855069817874    2.33401280324467
C         7.43815900615084    2.43522870127973    3.22937751762086
H         7.08994534527532    1.41264874489018    3.22538049276135
C         8.41955740278957    2.81285038240609    4.13371967467038
C         5.84516562107352    2.93658062233287    1.35371977062986
H         5.39526393684740    1.99056831803608    1.64364906834465
H         6.27886000768415    2.81988591660813    0.36034265968411
H         5.06702407540914    3.69422530900232    1.28923245041064
C         8.94826066321318    6.45540163168305    3.22064612588640
H         8.97878667101574    6.78989106672771    4.26347268756881
C        10.37430669873461    6.46708476457353    2.71232048178709
C        10.96614277003220    5.37716902520574    2.08959554782033
H        10.40772195939089    4.46297441996941    1.95360739049571
C        12.27361002497339    5.44975432605626    1.63797789468545
H        12.71954985356430    4.59065121667972    1.15670973750793
C        13.00489724695343    6.61421804073957    1.79511342443332
H        14.02396573983184    6.66947508487888    1.44092614302505
C        12.41953245631337    7.70964637320234    2.40840867473018
H        12.98171401412648    8.62344343347731    2.53467219938564
C        11.11586372352377    7.63456526788361    2.86218872337776
H        10.65714426635998    8.49237662822133    3.33319900667740
C         8.09867309559266    7.43336664693025    2.44611947193352
C         7.12848878667303    8.17801605436564    3.10406696621924
H         7.00577359993571    8.06010926213621    4.17125748026749
C         6.32835915669856    9.06542913659018    2.40645897257937
H         5.57813397875305    9.64026994756596    2.93005552289422
C         6.49010501292581    9.21997920870096    1.04011189410356
H         5.86731879780682    9.91380838910771    0.49462262925249
C         7.45600719677265    8.48261812667070    0.37641722636380
H         7.58751381412638    8.59951570022840   -0.68970090380350
C         8.25478200761198    7.59437689608267    1.07443913704026
H         9.00811619098769    7.02083840160003    0.55327650369048
C         9.09417449933844    1.84826024757704    5.08175085885540
H         9.13819806406049    2.33942099594955    6.06123760067102
C        10.51746603068782    1.61614459194686    4.62740595378649
C        11.52162827285124    1.45059841095296    5.57184254692755
H        11.27575052004343    1.49884749855042    6.62005463381947
C        12.83071728114479    1.23398446978750    5.17974477754332
H        13.59885071397125    1.10744103756151    5.92843008528261
C        13.15345589345786    1.18374507510139    3.83349052703942
H        14.17502480416816    1.01630202092072    3.52379461222798
C        12.15871835735033    1.34915491116335    2.88494269243992
H        12.40233853226550    1.30802680434742    1.83285667777553
C        10.84892928433804    1.56165458872538    3.27851750415012
H        10.07680199814527    1.68570935642167    2.53217791602423
C         8.30806067502822    0.56985781974275    5.24528487579686
C         8.62469984726553   -0.59472183245077    4.55965423750002
H         9.47584529296437   -0.61316707759820    3.89494237665865
C         7.85781811350357   -1.73600974553913    4.72432318855484
H         8.11603220187011   -2.63650886328640    4.18589295348888
C         6.76452567333720   -1.72627316868767    5.57228100701852
H         6.16702396316914   -2.61723819725194    5.69864255459525
C         6.44150977652161   -0.56760239824299    6.25952673717087
H         5.58974212799023   -0.55321519662923    6.92412398668571
C         7.20918726975337    0.57049265875498    6.09761653347123
H         6.95953731436500    1.47681041712144    6.63085260717736
C        12.29679112765346    7.98778655768060    6.27421662966693
H        13.36279324868461    7.93347503838892    6.48319622605294
H        11.95700146658974    9.02771034251015    6.32463038008756
H        12.11410426896273    7.59369302306810    5.27302235792280
C        10.75261446895727    5.87637236856542   10.37857355813831
H         9.99453819569103    5.22132392999219    9.95615905804087
H        10.46120292108039    6.91529540873799   10.21420631172478
H        10.85660158607874    5.68417464937416   11.45023404064493
O         9.85590776413694    4.49050912174927    5.03054294697703
O         8.08612172779887    4.34773141111635    6.83514365293781
O         9.21384771925131    6.57391545685388    6.42417580952128
O        10.52448221247979    4.61175892778714    7.42053724051912
O        11.63155163920217    7.21858621831073    7.26537798452381
O        11.96807027350549    5.57200090074654    9.71327269618286
P         9.46307802623086    5.10701538373157    6.47995725602314
Zn       12.26286726272525    5.25483334105197    7.64550802564464
H         7.46885606732846    4.99629294453771    7.16807645982668
H        10.68805578861008    7.13202293802126    6.98454879428640
H        12.66664886071705    6.15787436249001   10.03963400966285
C        15.66249320261671    6.37691615031588   11.15793526729407
C        16.16223331412829    5.44761139303832   12.06779704065137
C        17.14199533386842    5.85902984054432   12.95872582760007
H        17.54043028504073    5.15067695285779   13.66973237012620
C        17.62409213605161    7.16153741363027   12.95664213250554
C        17.08759076566741    8.07464044745931   12.06134926392693
H        17.43551940139028    9.09731885052679   12.06516853993274
C        16.10606954393925    7.69665425306586   11.15730252937155
C        18.68120707000848    7.57389298481991   13.93664151768723
H        19.13091649514117    8.51990180590186   13.64639991646495
H        18.24767498996234    7.69076944633242   14.93006927538468
H        19.45946911526095    6.81637602594831   14.00117191793530
C        15.57881849600673    4.05396282289477   12.07064924011939
H        15.54889500630603    3.71910657367149   11.02791881432691
C        14.15258027797655    4.04192730456112   12.57838941960801
C        13.56072074921506    5.13128113740852   13.20208474276689
H        14.11920522499982    6.04529606999329   13.33904600542245
C        12.25317477268235    5.05834495807081   13.65340324174578
H        11.80719641510139    5.91700060392922   14.13543451566554
C        11.52183217652168    3.89408057762659   13.49498795529589
H        10.50270298095997    3.83853848700737   13.84896177882922
C        12.10721527984020    2.79921953026480   12.88070131625812
H        11.54498329504328    1.88558901315107   12.75343908872193
C        13.41097713864262    2.87465325591377   12.42723284827689
H        13.86972308098999    2.01728349515799   11.95544911177680
C        16.42841343876141    3.07663415441118   12.84599429412081
C        17.39982993815807    2.33274802868913   12.18899511251049
H        17.52349515581720    2.45074299474596   11.12192413113612
C        18.20002338902307    1.44601153189986   12.88738816553017
H        18.95122096032328    0.87177650572310   12.36452147797299
C        18.03709367882427    1.29134649095281   14.25358278413490
H        18.65990990680821    0.59802205656342   14.79967920869957
C        17.06996858693219    2.02794832499140   14.91633454168321
H        16.93753376555575    1.91097476295753   15.98232950830682
C        16.27115739404042    2.91554497829564   14.21753311636700
H        15.51692472008685    3.48853383365239   14.73799423886656
C        15.43086472171765    8.66094854148773   10.20938300825248
H        15.38684744462505    8.16975201377401    9.22991235529531
C        14.00758360291415    8.89228084771323   10.66414084646486
C        13.00283876533398    9.05623484432047    9.72004543990809
H        13.24824711222610    9.00738266674374    8.67175485351992
C        11.69373499800188    9.27199536924551   10.11259168849528
H        10.92518229457640    9.39735756499889    9.36413730145082
C        11.37156948478629    9.32290945247670   11.45895348587916
H        10.34999688146984    9.48966430003053   11.76900850457524
C        12.36688842885675    9.15904505661429   12.40716520972834
H        12.12370092154762    9.20064004102647   13.45933463160473
C        13.67668193520108    8.94741559576866   12.01314616189009
H        14.44925088331387    8.82449663133896   12.75921692361658
C        16.21643996648153    9.93965426095219   10.04567468804153
C        15.89931780202953   11.10424327518184   10.73104031559960
H        15.04814657172473   11.12249497790197   11.39573890503821
C        16.66577978635893   12.24578887800036   10.56618954315411
H        16.40726490712407   13.14626883153388   11.10453501473010
C        17.75913542994846   12.23629795194552    9.71832935552142
H        18.35636179565283   13.12743698334141    9.59189536831499
C        18.08263033838336   11.07762181580260    9.03134499570883
H        18.93440946963819   11.06344547381757    8.36673592774465
C        17.31536559889892    9.93927503191818    9.19341888940053
H        17.56531813246207    9.03297292230137    8.66026787329855
C        12.22852948825395    2.52191037954662    9.01615300463613
H        11.16259281056827    2.57603898276611    8.80679864736294
H        12.56850313184273    1.48203843605291    8.96595889880570
H        12.41083279890020    2.91613729843561   10.01736469848245
C        13.77277002360503    4.63068063256566    4.91316165428505
H        14.53226123329023    5.28373621473318    5.33611391754183
H        14.06132199246228    3.59099022266123    5.07776465346335
H        13.67006281427201    4.82315834601856    3.84142247890656
O        14.66993346365445    6.01858389662640   10.26098242712019
O        16.43954460277084    6.16143246707768    8.45626911712965
O        15.31148755748309    3.93536665077520    8.86687984493124
O        14.00110995520448    5.89796446868670    7.87097254245236
O        12.89397878631746    3.29111968467466    8.02514570368272
O        12.55764161295174    4.93829571626698    5.57759221436131
P        15.06245926545211    5.40232045082912    8.81144835979886
H        17.05650620792158    5.51286116294011    8.12279710860074
H        13.83743696615585    3.37761289021672    8.30618862266224
H        11.85775111925742    4.35424150736730    5.25072331100012

