48
CSD_code = SEMKUS | q = 0 | S = 0 | Stoichiometry = C21H22N2O2Pd | MND = 4
Pd       -1.14372552698648    1.72983574536728   11.40827709960370
O        -3.37455722851672   -0.39863598599878    8.84404524792153
O        -1.96140255855955   -0.08415941710615   10.53988708083297
N        -1.19889030722293    2.33680998257347    9.49215303898690
N        -0.91920788016774    0.74736076748899   13.09546361776883
C        -2.50557147929913    0.21239214816123    9.44307992397931
C        -1.92854620031464    1.48636533913953    8.75600247470181
C        -2.11498038842153    1.66523168284325    7.39125514571282
H        -2.73380969644236    0.94998944508123    6.87148897861005
C        -1.50807579253619    2.73214264441653    6.75548483535116
H        -1.63322955024243    2.89359935813941    5.69525934697823
C        -0.72038249602502    3.58458207537998    7.51612273897457
H        -0.20854204929602    4.42093129684521    7.06633452117790
C        -0.59796067746572    3.35531376360142    8.87517621357568
H        -0.00022646276542    4.01657797335160    9.49010781079584
C         0.31482628514724    0.43735599750638   13.50072057656986
H         1.12729683205339    1.03857487481126   13.09927193755261
C         0.56786544876508   -0.58840197924220   14.39492226924173
H         1.58176607078076   -0.80767328449138   14.69122029345461
C        -0.49679595751345   -1.32412040797605   14.89262066100518
H        -0.33254550985516   -2.12945226589631   15.59234792399665
C        -1.77453263523707   -1.00502261527840   14.46083037596639
H        -2.63329755947359   -1.55589515854728   14.80966581508193
C        -1.94196174739413    0.03025370401096   13.55723724897194
H        -2.92584603321537    0.28991093287930   13.18420007788973
C        -0.59433485439057    3.50948875519895   12.29275834414024
H        -0.09771965161870    3.27964629027396   13.24626092552396
H         0.10546424102355    4.12169688425546   11.70866488191713
C        -1.85282174634180    4.35046572642859   12.60532238114869
C        -2.24908699823488    5.21177098894080   11.39395564884848
H        -2.31252093960346    4.62480486632803   10.48133338462394
H        -1.50501370016414    5.99011013156797   11.23684410681250
H        -3.21107451483559    5.68943685341757   11.56957465086396
C        -1.54244854980609    5.32074513944464   13.75671115143096
H        -2.43270323923849    5.87779790359213   14.04172161366361
H        -0.78172751689806    6.02992712337088   13.43685526706378
H        -1.15731567537915    4.79925332776821   14.62889778663650
C        -2.99546351863404    3.39690261515979   12.96270511156204
C        -3.36331123776599    3.13234075357901   14.27755376419900
H        -2.84589664150981    3.60573663840702   15.09620456829185
C        -4.40655390118272    2.26776938697435   14.57583827794338
H        -4.67210631803082    2.09325470120648   15.60871079651959
C        -5.10488356723247    1.63500397690813   13.56509599149867
H        -5.91816641967206    0.96353805248637   13.79740717714348
C        -4.75122778403320    1.87600324244622   12.24531121764351
H        -5.29162192515494    1.39515497349582   11.44267619661849
C        -3.71255431283486    2.74442044933188   11.94577652541582
H        -3.52977812829818    2.97266460252832   10.89744497581983

