77
CSD_code = SEMMOM | q = 0 | S = 0 | Stoichiometry = C44H28N4Zn | MND = 4
Zn       -0.00000422384205   -0.00000343249942   -0.00000739206770
N         0.43123377398556   -0.84252645211561    1.79192905102045
N         1.33720499345247    1.47675915165842    0.37150789518996
C         1.62397843031398    2.53471633612194   -0.43471396213954
C         2.63167258861184    3.35483516386025    0.17753285540087
C         2.93455595006329    2.78122128228635    1.36532633846634
C         2.12328998830749    1.60121856643848    1.47524484648352
C         2.14390218834099    0.73548651258394    2.56728015710376
C         1.35296316583319   -0.40525700351797    2.69225115348062
C         1.43270173113400   -1.32362656068175    3.79364026742948
C         0.54153793910256   -2.31119883322566    3.54462857222586
C        -0.08586957696191   -1.99787065210485    2.29109625462337
C         1.05031183447929    2.79593522614132   -1.67793564688511
C         1.48664342806997    4.01508065290835   -2.39436259594953
C         2.16671954635135    3.91853291079625   -3.60417824417296
C         2.57274202887191    5.05965760274727   -4.27215380992112
C         2.29990831538256    6.31012004477827   -3.74338412022012
C         1.62058143828837    6.41468863853814   -2.54108790181374
C         1.21819739096563    5.27504841795275   -1.86864284287945
C         3.08073630917188    1.04310980691057    3.67108841202881
C         4.45573951992939    0.99083624883149    3.46502143986769
C         5.32980110576475    1.27431355154280    4.49886109462272
C         4.84172032481602    1.61991080496971    5.74798591297037
C         3.47436181676352    1.67713486940250    5.96016820986068
C         2.59820980421803    1.38684205439178    4.92993243918972
H         3.05095940492394    4.24342555893544   -0.25230622535622
H         3.63399817985660    3.12134496910230    2.10379345613222
H         2.09602392673249   -1.22742102204308    4.63094034121716
H         0.33511951394759   -3.17970667000909    4.13897037755965
H         2.38283867573558    2.94202056983036   -4.01286656651979
H         3.10371698392786    4.97301742123985   -5.20895124208081
H         2.61523800036311    7.20052388956637   -4.26690986936694
H         1.40278481961416    7.38792196454300   -2.12586115437668
H         0.68249949358536    5.35441557591385   -0.93369453882376
H         4.83371604134634    0.71650509009622    2.49070450993864
H         6.39554904169039    1.22538988277895    4.32873892540173
H         5.52494592662074    1.84344733027335    6.55399468957917
H         3.08823371956358    1.94796464509567    6.93218422670845
H         1.53100131877441    1.43385938681463    5.09199289964276
N        -0.43124164637050    0.84252095889714   -1.79193817360116
N        -1.33721281659197   -1.47676670564346   -0.37151524263836
C        -1.05035430912270   -2.79592002260022    1.67794995562234
C         0.08584520984264    1.99787073294139   -2.29109221723834
C        -1.35294931094810    0.40523642288409   -2.69226599123754
C        -1.62400393149172   -2.53471074578182    0.43471382378135
C        -2.12327986405491   -1.60123387803621   -1.47526282745539
C        -1.48672155903277   -4.01503761534669    2.39441216372007
C        -0.54155797172382    2.31119721781052   -3.54462998670193
C        -2.14387117996624   -0.73551737606442   -2.56730569047851
C        -1.43269288656035    1.32360514020939   -3.79365735092812
C        -2.63169798707238   -3.35483064869547   -0.17753617680145
C        -2.93455105107360   -2.78123194923480   -1.36534396654944
C        -2.16680073854637   -3.91844029023419    3.60422262898031
C        -1.21829697070224   -5.27502581003139    1.86873077167746
H        -0.33514590389831    3.17971060569576   -4.13896913574791
C        -3.08066208645634   -1.04316197666570   -3.67113461923230
H        -2.09600736624783    1.22739381324027   -4.63096484213478
H        -3.05099072249622   -4.24341638264809    0.25230892482769
H        -3.63398734243967   -3.12136058151979   -2.10381480011792
C        -2.57283991058194   -5.05953796756666    4.27223347095029
H        -2.38290652917693   -2.94191090973376    4.01287783529445
C        -1.62069906130494   -6.41463799749005    2.54121194460272
H        -0.68260224276549   -5.35442807213063    0.93378457500428
C        -4.45567167330783   -0.99089304303219   -3.46511205583568
C        -2.59809708158358   -1.38690702945128   -4.92995979694983
C        -2.30002035101633   -6.31002058167160    3.74350580052257
H        -3.10381340857021   -4.97285937880525    5.20902796428224
H        -1.40291240687472   -7.38788700497520    2.12601772488289
C        -5.32970258427069   -1.27437594139769   -4.49897745921621
H        -4.83368259821312   -0.71655886840049   -2.49080892138804
C        -3.47421592215497   -1.67721066656426   -5.96022150493245
H        -1.53088359653519   -1.43393068389815   -5.09198982127429
H        -2.61535365666348   -7.20040343523967    4.26706455940283
C        -4.84158297700614   -1.61997964684660   -5.74808617257014
H        -6.39545696214410   -1.22545232025512   -4.32889064427297
H        -3.08805990740639   -1.94804763702137   -6.93222515624450
H        -5.52478355356592   -1.84351322554962   -6.55411780357643

