59
CSD_code = SEMMUV | q = 0 | S = 0 | Stoichiometry = C24H28Cl2N4Ru | MND = 6
Ru       12.62973236623080   13.45555487334422   12.76593937929268
Cl       10.96877050587014   13.45619595087817   14.48858081883965
N        11.61080517132215   12.03452298038501   11.77783769667240
N        11.60369370378106   14.87289679589029   11.78119684973293
C        12.23653725031559   11.00303766300262   11.19628988017983
H        13.31711077461397   10.98658956041199   11.27320655220323
C        11.03958536896366   15.90259498106512   12.42538020255235
H        11.16590615983194   15.92862843578921   13.50109380518495
C        10.71446771172824   15.75775913968452    9.74505561433005
H        10.62174852551292   15.65575471829584    8.67445170042126
C        11.43514790096828   14.81809645600034   10.45482529081547
H        11.92168750157432   13.99933079607398    9.93814925782742
C        10.30049287132105   16.87720345506154   11.78830561897046
H         9.86550664218495   17.67762905622810   12.36730237218956
C        10.11710458355516   16.82418853200824   10.40858473405908
C        10.27824748333178   12.08036739198427   11.66538438904752
H         9.77794442888121   12.90285847174066   12.16254632152608
C         9.30667720318663   17.85394631427948    9.69092737113556
H         9.45994070024113   17.79055695643889    8.61674091736838
H         9.57033234480036   18.85385196453067   10.03019767226568
H         8.24698149080226   17.70220327156970    9.89756299739296
C         9.54354231780219   11.12682389291074   10.98908511081793
H         8.46928715031451   11.22150067101786   10.94216651817234
C        11.57399008861768   10.01498464360676   10.49883873210453
H        12.13851307801804    9.21313372290265   10.04774481611478
C        10.18683172994704   10.05570761264720   10.37843289790483
C         9.44123349575327    9.00620164471324    9.62022243902321
H         8.37064369251307    9.09262168097769    9.78647672274655
H         9.76865431864636    8.01267120849216    9.92117100528024
H         9.63525671748449    9.10961277121711    8.55252631889127
Cl       14.29165778628502   13.45658405856577   11.04423390877949
N        13.64897051881893   12.03469206005646   13.75406316229190
N        13.65631115886281   14.87269464123328   13.75051016092242
C        13.02328917719839   11.00325177557119   14.33576012392063
H        11.94269891564257   10.98687985202310   14.25903803567088
C        14.22059209710828   15.90230259330403   13.10631522102464
H        14.09442172648142   15.92823847714463   12.03057868830549
C        14.54513177769916   15.75783611366207   15.78673401670495
H        14.63762826804325   15.65597408307545   16.85737254694856
C        13.82452109156242   14.81812585761431   15.07694263279652
H        13.33777990564474   13.99948895298800   15.59363623237917
C        14.95958192681904   16.87698289073093   13.74342283559165
H        15.39475840584362   17.67729600289770   13.16441259925242
C        15.14271684311815   16.82413186522500   15.12318745168751
C        14.98156733910693   12.08042739233972   13.86627588292502
H        15.48184176263943   12.90286337018682   13.36898720636563
C        15.95311102186325   17.85390162010896   15.84088281940483
H        15.79966294003713   17.79063865607148   16.91505146794159
H        15.68960640103923   18.85380070024101   15.50147516282119
H        17.01283349178011   17.70205943926601   15.63445533884629
C        15.71633192984486   11.12684112819689   14.54247003565899
H        16.79060231991915   11.22144473119503   14.58921204596091
C        13.68590060400433   10.01515215852248   15.03309528592130
H        13.12141112868050    9.21334326526661   15.48430952079679
C        15.07308539538647   10.05576493025578   15.15324462945153
C        15.81874912090122    9.00618353830937   15.91130409034865
H        16.88931406448867    9.09250084898024   15.74483555325004
H        15.49118540894793    8.01267798535068   15.61042548714479
H        15.62496419406692    9.10959539847444   16.97904385382812

