77
CSD_code = SEMNON | q = 0 | S = 0 | Stoichiometry = C44H28N4Zn | MND = 4
C        -0.34686451615633    0.10069154258169    3.02013338592361
C         0.36962392985183   -0.08590900773834    4.25088968228030
C         1.63267708667947   -0.44055343375507    3.91846004283378
C         1.69537357029462   -0.45674636470068    2.48366494765778
C         2.83755241841268   -0.77980923352421    1.75301880003430
C         2.90764072752780   -0.81225466577503    0.36119671962220
C         4.10892600578634   -1.08161618990693   -0.37868844436207
C         3.78780294844017   -0.99601674740538   -1.69057292294054
C         2.38948872369844   -0.67432628552269   -1.75554637276558
C        -1.68752285649671    0.47459391697524    2.94311251648165
C         4.06946757119977   -1.10228681795288    2.50711984995223
C         4.69846306932912   -0.13226772174484    3.28124668344811
C         5.85376242158580   -0.43415658200731    3.97924454408503
C         6.39134254478679   -1.70898231744963    3.91777795328686
C         5.76945066749218   -2.68095138397035    3.15198195356566
C         4.61760311695322   -2.37975653819484    2.44804213612711
C        -2.42228575091105    0.66379651057685    4.21374831882071
C        -2.89940870951396    1.92058230624436    4.57239131359901
C        -3.58225902490564    2.09716383539006    5.76221101767894
C        -3.80281896846070    1.02037470465546    6.60467850457489
C        -3.33525590601580   -0.23477793430376    6.25260184485446
C        -2.64669738609337   -0.41265931101149    5.06634704355654
N         0.48128842427498   -0.12739870921849    1.96479839382814
N         1.88315455753290   -0.55935135196539   -0.49779357841568
Zn        0.00000029965625    0.00000168531497   -0.00000017449130
H        -0.04286957404530    0.04505852090790    5.23216548865505
H         2.44708607941849   -0.67590215839738    4.57538700188937
H         5.06775866494872   -1.28926732230446    0.05469310608539
H         4.43303249601066   -1.12008092539771   -2.53826231229307
H         4.28076314975877    0.86332890725788    3.32304265496180
H         6.33694921928384    0.32826913407223    4.57287278241754
H         7.29252127874889   -1.94408885243447    4.46457412755201
H         6.18382201343033   -3.67745115026925    3.10258113119409
H         4.12852222365644   -3.13746715117639    1.85299168916814
H        -2.72226375154358    2.76014551086251    3.91576851935567
H        -3.94358662151101    3.07853588125739    6.03333342874264
H        -4.33774087881577    1.15879660570494    7.53263472605192
H        -3.50772885379318   -1.07856474666674    6.90485639691180
H        -2.28582157552709   -1.39205337682470    4.78708221730165
C         1.68752317095226   -0.47459142119171   -2.94311231179164
C         0.34686474929535   -0.10069024170797   -3.02013269948291
C        -0.36962335062348    0.08591093576653   -4.25088895907051
C        -1.63267692587890    0.44055229526210   -3.91845942210432
C        -1.69537363749969    0.45674376979132   -2.48366446983741
C        -2.83755293449626    0.77980482666342   -1.75301887096203
C        -2.90764134916522    0.81225226854091   -0.36119785001731
C        -4.10892622013075    1.08161498267475    0.37868742241465
C        -3.78780300508418    0.99601859833274    1.69057205787269
C        -2.38948870837258    0.67432768159821    1.75554534213832
N        -0.48128798598670    0.12739982879985   -1.96479821207923
N        -1.88315463279302    0.55935244661824    0.49779227325685
H        -4.43303233928002    1.12008376074355    2.53826181457924
H        -5.06775904412832    1.28926468515584   -0.05469374649837
C        -4.06946845959139    1.10228006991689   -2.50711901626215
C        -4.69846246483460    0.13225893977424   -3.28124434521181
C        -5.85376295812798    0.43414465740382   -3.97924247737818
C        -6.39134570454518    1.70896966488325   -3.91777788894903
C        -5.76945473056047    2.68094115195871   -3.15198387436839
C        -4.61760625830870    2.37974905305036   -2.44804336055373
H        -4.12852650548738    3.13746162637886   -1.85299432975296
H        -6.18382786598800    3.67744051915935   -3.10258506828554
H        -7.29252479127063    1.94407401263433   -4.46457493951843
H        -6.33694864038920   -0.32828271136178   -4.57286988117678
H        -4.28076152392570   -0.86333734345867   -3.32303817689860
H        -2.44708670909789    0.67589948361421   -4.57538678250030
H         0.04287063797650   -0.04505545927295   -5.23216532023823
C         2.42228726311710   -0.66379033754109   -4.21374720943485
C         2.89941158992675   -1.92057480556362   -4.57239313174042
C         3.58226195454801   -2.09715331262736   -5.76221384391513
C         3.80282166058699   -1.02036199664913   -6.60467890566282
C         3.33525726414578    0.23478951662526   -6.25259908981151
C         2.64669805713923    0.41266747981450   -5.06634364817110
H         2.28582157036059    1.39206075860123   -4.78707679639822
H         3.50772927396368    1.07857787674862   -6.90485225448454
H         4.33774403927087   -1.15878144642096   -7.53263553304196
H         3.94359024974450   -3.07852463595964   -6.03333881867526
H         2.72226642957027   -2.76013996093968   -3.91577279321840

