56
CSD_code = SEMNAB | q = 0 | S = 0 | Stoichiometry = C27H25NOPtS | MND = 4
Pt       -2.10157310573266    1.34778440647429   11.77600815305658
S        -2.65152569567651    1.45324299953036   14.07510017692086
O        -3.32705417181468    0.26309713687000   14.59170239505693
C        -1.20525024812451    1.69084578255390   15.17772768568989
H        -1.51371603303800    1.44953574786199   16.18845470577415
H        -0.86659536183849    2.71660262810512   15.10405908804406
H        -0.42199892874043    1.01008703560048   14.85878588015837
N        -2.43521609259497   -0.74864564349791   11.95694973580186
C        -1.82051138612557    3.32572404809482   11.58157965429777
C        -0.87898289481776    3.98409032997351   12.37766701635582
H        -0.20304474240214    3.40808937915447   13.00169150338925
C        -0.75615563797933    5.36416008760994   12.37328736095191
H        -0.01709404626891    5.84301379236646   13.00243761593116
C        -1.57511625819842    6.13191277519236   11.56432836507261
H        -1.48698588451366    7.20924778193752   11.56502741116878
C        -2.49124645615139    5.50365314824056   10.73872417396823
H        -3.11763987121714    6.09328049659901   10.08301474087503
C        -2.60368169592657    4.12277038632520   10.74144205362845
H        -3.30281193443065    3.65347973978421   10.05925207994029
C        -3.59726239717720    2.89187388960688   14.69882151715453
H        -3.61966957175670    2.86722994021799   15.78172169220823
H        -4.60490585933517    2.81434237351016   14.30526238100055
H        -3.11710080535829    3.79153335026460   14.32991580151043
C        -1.56777738182688    1.14525481203339    9.85108886568352
C        -2.55902512011428    0.94142277124195    8.88846046306332
H        -3.60595153370555    0.98518757417751    9.17470417191259
C        -2.23558187329372    0.68841309544798    7.56578861858473
H        -3.02081332974451    0.53503278782609    6.83780082672951
C        -0.90973273923502    0.63082070553330    7.17288825874126
H        -0.65586901778878    0.43300507617607    6.14100227003470
C         0.08766222403962    0.83342220803456    8.11033141241193
H         1.12544304182495    0.79481713419125    7.80844895838980
C        -0.23763903866595    1.08982727856562    9.43258125767462
H         0.55967365777127    1.25941343948158   10.14704659363061
C        -1.63015372312492   -1.78523820426129   12.11571805410905
H        -0.56877824799036   -1.58223416699127   12.04789995991291
C        -2.10225110852393   -3.06543897466104   12.35098207589791
H        -1.41209252474142   -3.88380313617239   12.48145551436424
C        -3.47432349975836   -3.26828364605290   12.41803493307932
H        -3.87473141285815   -4.25393147354903   12.60393517308244
C        -4.32071220667945   -2.19007937243294   12.24473768677120
H        -5.39297126849367   -2.29762306845666   12.29198217639661
C        -3.75914273292487   -0.93344051854963   12.01841342326537
C        -4.56287058667440    0.22066221141925   11.85751202259678
C        -5.37559826961792    1.11863882889363   11.78383545741051
C        -6.29772614670797    2.18323740625934   11.71180746519397
C        -5.86055044591837    3.50693883541658   11.79825819659342
H        -4.80447171467727    3.71134284525534   11.89412208612816
C        -6.77753538727544    4.53828844114907   11.74518085394888
H        -6.43442187319107    5.56030891424846   11.80922624828710
C        -8.13000916614004    4.26593180112049   11.60873902556296
H        -8.84342200029630    5.07561883393581   11.56758594495098
C        -8.56797124536447    2.95308019878680   11.52285671100648
H        -9.62180535774115    2.74161115826863   11.41514815195756
C        -7.66159138751458    1.91242175631827   11.57408981363124
H        -7.99601950392792    0.88742283492735   11.50707614095365

