77
CSD_code = SEMPIJ | q = 0 | S = 0 | Stoichiometry = C44H28N4Zn | MND = 4
Zn       -0.00000788672070   -0.00000758419995   -0.00001479181376
N        -1.75648329647801    0.56039215403171    0.84043576157270
N        -0.54981960723148   -1.94555769716887    0.14854578568507
C        -2.18105656764684    1.83452155077437    1.05916122628777
C        -3.51958231320832    1.81960274113450    1.58004821569185
C        -3.88589028826186    0.52068243803441    1.68009670030704
C        -2.77224708090105   -0.26134727060628    1.22030100262206
C        -2.77266998962688   -1.65335963264873    1.14611401761652
C        -1.72558010595744   -2.42206072319244    0.64078229763433
C        -1.73319566594937   -3.85708023511354    0.58050562454783
C        -0.55248550433993   -4.23201736387308    0.03570348342573
C         0.18582736693251   -3.02767419069121   -0.22460964524356
C        -1.46019923066002    2.99652676979390    0.78863539139695
C        -3.97638749404699   -2.36302944847202    1.63397360043075
C        -4.32049848366021   -2.31837304719796    2.98143429137915
C        -5.44535287710128   -2.97987097547499    3.43963422118359
C        -6.24357164279298   -3.68864714387808    2.55731774784721
C        -5.90969880881776   -3.73525161007509    1.21408861657919
C        -4.78188156467780   -3.07947925732462    0.75448075094649
C        -2.09962262670175    4.29073081955592    1.11478608090815
C        -2.37220006543803    4.62972020982173    2.43634917385864
C        -2.96802845384034    5.84036931501875    2.74027080668026
C        -3.30455099558422    6.72413180974219    1.72848705532683
C        -3.03989248488226    6.39251841467703    0.41021266605263
C        -2.43883025440140    5.18500300894016    0.10423694303915
H        -4.09921501566777    2.69018788498280    1.81753468073255
H        -4.82362062770558    0.12215618250911    2.01500751644139
H        -2.53470946073980   -4.48511515266130    0.91725303661247
H        -0.20935826005292   -5.22526458802947   -0.17865433429297
H        -3.69429754709788   -1.76750618028804    3.66834183979364
H        -5.70003490499747   -2.94266187354480    4.48882989551611
H        -7.12307812382243   -4.20296325761402    2.91547740038766
H        -6.53101172760917   -4.28439611609262    0.52153593461291
H        -4.52321981166957   -3.11006944079048   -0.29416273705257
H        -2.10503767502876    3.94065197626618    3.22454699530542
H        -3.16979131348393    6.09600685436796    3.77037713296698
H        -3.77115556427780    7.66860971281485    1.96662505247061
H        -3.30358482026641    7.07708891700010   -0.38289437703103
H        -2.23722657687326    4.92161311045232   -0.92407323249105
N         1.75647676090327   -0.56039903337380   -0.84044178778196
N         0.54980522869027    1.94553721929645   -0.14855390835539
C         1.46001565501531   -2.99652464430863   -0.78902850714102
C        -0.18593319036725    3.02766227437329    0.22439078814956
C         2.18094747777775   -1.83452413312246   -1.05938061207968
C         2.77235472143798    0.26131958182657   -1.22005667024155
C         1.72567750806421    2.42202809607620   -0.64053417530999
C         2.09929149112031   -4.29070400557152   -1.11556927734887
C         0.55240244153586    4.23200400937572   -0.03586482503464
C         3.51950031931840   -1.81962986849157   -1.58019964574882
C         3.88595125903740   -0.52072581001904   -1.67993752791928
C         2.77285385693456    1.65332232359382   -1.14568477068366
C         1.73325540972775    3.85705192842723   -0.58034881447819
C         2.37164178875087   -4.62937548623433   -2.43726295498182
C         2.43858687716166   -5.18525860647966   -0.10530230528685
H         0.20920130572413    5.22525740429482    0.17834178520649
H         4.09905563607812   -2.69022465646579   -1.81783690681253
H         4.82374955399092   -0.12222731905061   -2.01468843701396
C         3.97671551663095    2.36299731561082   -1.63318160911320
H         2.53484629694365    4.48507567988908   -0.91693484049366
C         2.96732770733672   -5.83999252314567   -2.74158888528800
H         2.10442961646993   -3.94007315066554   -3.22523938918606
C         3.03950454486801   -6.39274380933996   -0.41168284219692
H         2.23718730932909   -4.92210743358192    0.92310912578129
C         4.32118284193778    2.31850333644112   -2.98055635240645
C         4.78200312772579    3.07930217935345   -0.75338057195202
C         3.30393361475230   -6.72404133359286   -1.73008224257197
H         3.16889796691724   -6.09538784038014   -3.77179343936624
H         3.30325810213819   -7.07754177532139    0.38120698932220
C         5.44619586528297    2.98000333437194   -3.43836452265525
H         3.69513857656234    1.76776186713383   -3.66770781289980
C         5.90998665993998    3.73506175735005   -1.21259416356760
H         4.52305003536945    3.10977758486058    0.29519415148000
H         3.77038869716016   -7.66851365630966   -1.96853689407100
C         6.24422293925971    3.68860809774332   -2.55573786389230
H         5.70116546217141    2.94291108541083   -4.48749489304909
H         6.53112717000093    4.28410283121432   -0.51980474761345
H         7.12385119958828    4.20292609783066   -2.91359247133165

