77
CSD_code = SEMPUV | q = 0 | S = 0 | Stoichiometry = C44H28N4Zn | MND = 4
C        -2.03459571826824    2.13118973306483   -0.75704290515895
C        -3.23042962565319    2.77442058672659   -0.28902452549233
C        -3.52213402438708    2.22974053600869    0.91508609763864
C        -2.51469308128310    1.24055387808395    1.17836637954137
C        -2.46974922135726    0.45526635452746    2.32913759958289
C        -1.49066939510056   -0.49848274962252    2.60256966296671
C        -1.49497824376403   -1.34806552012580    3.76058697929420
C        -0.41020259445475   -2.15106510388332    3.66059645033376
C         0.25943342973357   -1.79432731016138    2.44106209659401
C        -1.41286458915185    2.42017440384198   -1.97072556927557
C        -3.54571397916079    0.63732489428831    3.32874020941904
C        -4.86258555221219    0.31622062959773    3.01438489208549
C        -5.86668061956047    0.48273636070919    3.95091112977269
C        -5.56923380101393    0.97664955913984    5.21012839785790
C        -4.26126217349350    1.30018353668038    5.53019686550017
C        -3.25449327413584    1.12908277477246    4.59727373634452
C        -2.01314213410177    3.47401291209498   -2.81863340162009
C        -2.54363327405826    3.15785544598519   -4.06542922318913
C        -3.10488992366561    4.14258135314549   -4.85810731191077
C        -3.13779522552982    5.45536470499231   -4.41847505682250
C        -2.60903235792570    5.77883380354949   -3.18000203278499
C        -2.05227045943043    4.79492145575297   -2.38314903970167
N        -1.62392650116285    1.20393989583489    0.15032120000280
N        -0.42239863247579   -0.79731781937029    1.81455386484308
Zn        0.00009650374367    0.00011843044178    0.00007806676788
H        -3.77157895020598    3.53430783395686   -0.81806485038976
H        -4.33544049228841    2.47354850455837    1.57029845350498
H        -2.24028509756194   -1.33782912901856    4.53174162906396
H        -0.09696345684010   -2.92477590873014    4.33402421621926
H        -5.09139839536543   -0.07407896308838    2.03319462794984
H        -6.88496767145526    0.22577540303908    3.69748725787627
H        -6.35432403892522    1.10821221846220    5.94004647598888
H        -4.02449012134101    1.68719858328749    6.51066759114195
H        -2.23398947750143    1.38480960027557    4.84340485439519
H        -2.52089357743835    2.13229698077951   -4.40454722955416
H        -3.51807016466338    3.88485277419826   -5.82240418689936
H        -3.57386395276435    6.22408236679876   -5.03921017677632
H        -2.62890214038192    6.80199447716407   -2.83420711397824
H        -1.63263293590541    5.04630972427379   -1.41988006202255
C         1.41278508314973   -2.42026981429527    1.97065833054813
C        -0.25948159220921    1.79426866845836   -2.44109998805287
N         1.62397477778592   -1.20387898801770   -0.15028695975919
N         0.42245599595220    0.79739002508558   -1.81450169711469
C         2.03454526327566   -2.13124670378073    0.75699884204898
C         2.01307418310752   -3.47410752016054    2.81855829739470
C         0.41020276747080    2.15107160928284   -3.66058965120604
C         2.51468111046843   -1.24056679560617   -1.17838001861368
C         1.49065748453860    0.49846996481689   -2.60257901006387
C         3.23043094137100   -2.77441615023379    0.28902304501242
C         2.54356381507067   -3.15799391280916    4.06537071661361
C         2.05217200444048   -4.79500177335846    2.38304523471742
C         1.49500784324301    1.34810847242290   -3.76055603686681
H         0.09693022140903    2.92474434751035   -4.33404412372423
C         3.52216546648572   -2.22970159335783   -0.91506463732966
C         2.46973732829211   -0.45527901031637   -2.32915047562734
H         3.77155235118267   -3.53433610318931    0.81804329604276
C         3.10477667128861   -4.14275677046904    4.85803861447511
H         2.52083944698923   -2.13244509077038    4.40452351754752
C         2.60888775632653   -5.77894852847752    3.17988646694312
H         1.63253533124944   -5.04635341089855    1.41976690546098
H         2.24030821048921    1.33786796701733   -4.53171654924547
H         4.33547132962890   -2.47351096780088   -1.57027675424706
C         3.54576618999835   -0.63724872431360   -3.32869810207879
C         3.13764208553802   -5.45552842301895    4.41837772099793
H         3.51797212378074   -3.88506418349157    5.82233585327762
H         2.62875969391469   -6.80209741056412    2.83404546744756
C         4.86262179844687   -0.31611933733240   -3.01428237564259
C         3.25460819994846   -1.12898013223649   -4.59725070894830
H         3.57372058918516   -6.22426968204987    5.03907531769242
C         5.86676232142008   -0.48260773426461   -3.95076777374599
H         5.09139002262309    0.07416417919756   -2.03307506138024
C         4.26141948019179   -1.30005396947671   -5.53013025309254
H         2.23412196797463   -1.38473825576733   -4.84342044533776
C         5.56937429455635   -0.97650867448765   -5.21000327803312
H         6.88503258439768   -0.22561333870945   -3.69730727742992
H         4.02469067873714   -1.68704783606993   -6.51061848438526
H         6.35448911878711   -1.10801161050037   -5.93990401340267

