77
CSD_code = SEMREH | q = 0 | S = 0 | Stoichiometry = C44H28N4Zn | MND = 4
C        -1.97474507089340   -1.80813123728358    1.44084238193266
C        -3.18658697690181   -2.55181687059759    1.23737266939772
C        -3.60019997109206   -2.28809403543733   -0.02390745436111
C        -2.64287190912457   -1.38145598855747   -0.59376023589453
C        -2.70922358143570   -0.89162019401636   -1.89714857076048
C        -3.87186377464703   -1.29254621575376   -2.72035275096718
C        -5.15554142933808   -0.88251385551950   -2.37391765942375
C        -6.24220172523147   -1.25768482920456   -3.14291487752362
C        -6.06122738130761   -2.05186761649813   -4.26294047110116
C        -4.78706949496264   -2.46667744580617   -4.61276075681066
C        -3.69807276212635   -2.08759960975060   -3.84888070719819
C        -1.75629480011215   -0.05964782525560   -2.48251563728809
C        -1.84668075149195    0.45461249827134   -3.82053868110147
C        -0.74569756301582    1.21524764001587   -4.02255127197233
C         0.01259407159055    1.18023749503952   -2.80322542782545
C        -1.22418909914887   -1.84318356532485    2.61482640860249
C        -1.74668401363074   -2.65252719806612    3.73842972468232
C        -1.06223238823149   -3.78412412849775    4.17077901323180
C        -1.55220197850076   -4.54083192690631    5.21967488589897
C        -2.72779882980292   -4.17383009496082    5.85314874641722
C        -3.41413803923686   -3.04808122922729    5.42972615131287
C        -2.92948733671421   -2.29330125364880    4.37679841446216
N        -1.66320344157244   -1.11498294025254    0.31215403237448
N        -0.62164010158831    0.39871417420501   -1.88748782245862
Zn       -0.00000426501661    0.00000608282806    0.00000175280844
H        -3.64234782339901   -3.19929062596824    1.96082430266272
H        -4.45953500377736   -2.67891994867351   -0.53291220206364
H        -5.29361155471327   -0.25973141846408   -1.50187262499515
H        -7.23394178997816   -0.92974488327266   -2.86714423236409
H        -6.91059248753157   -2.34675564539405   -4.86127614315337
H        -4.64114721855091   -3.08859618844965   -5.48400488678716
H        -2.70389499184816   -2.41519192853476   -4.11667449487583
H        -2.65027285584031    0.26099406601895   -4.50389618745118
H        -0.46434662022808    1.74740230221768   -4.91017052764059
H        -0.14795513913093   -4.07119261674782    3.67166437750259
H        -1.01451820227656   -5.41981922834257    5.54436207426845
H        -3.10774574649184   -4.76338441159243    6.67442014801575
H        -4.33091524469871   -2.75706127656552    5.92166057203845
H        -3.46165324253859   -1.41264772370780    4.04711890671403
C         1.22418446482264    1.84319139392604   -2.61482606459358
C        -0.01259635238993   -1.18023381579344    2.80322355187505
N         1.66319943364749    1.11498848636453   -0.31215403824229
N         0.62163673790080   -0.39870837532579    1.88748762141664
C         1.97474254501323    1.80813516598775   -1.44084305045582
C         1.74666966622742    2.65255586286365   -3.73841999519536
C         0.74569335339257   -1.21524189731720    4.02255071740001
C         2.64287642463936    1.38144959007329    0.59375565546236
C         1.75629838295871    0.05964139112889    2.48251019963471
C         3.18658324445759    2.55182258446971   -1.23737247175765
C         1.06220961218388    3.78415418050274   -4.17075330070608
C         2.92947394567338    2.29334220876904   -4.37679413907874
C         1.84668039389181   -0.45461293473297    3.82053620046125
H         0.46434273757139   -1.74739799016954    4.91016947443175
C         3.60019974350280    2.28809384660378    0.02390554649941
C         2.70923255197798    0.89160618385695    1.89714044937637
H         3.64234459553642    3.19929509991299   -1.96082499397357
C         1.55217140419471    4.54087350860305   -5.21964411588785
H         0.14793108497636    4.07120736447808   -3.67163151630686
C         3.41411420111586    3.04813168063825   -5.42971907929766
H         3.46164100302764    1.41268762389449   -4.04712065696303
H         2.65027389783412   -0.26099689313896    4.50389287430847
H         4.45953631022685    2.67891758222836    0.53290927601230
C         3.87188078288473    1.29251783217989    2.72034012746757
C         2.72776592579905    4.17388005276159   -5.85312754803947
H         1.01448634050315    5.41986221179056   -5.54432479556268
H         4.33089646629438    2.75713088894385   -5.92165593669973
C         5.15555292379564    0.88247577438044    2.37389699528532
C         3.69810224087603    2.08756526526302    3.84887458870430
H         3.10771176275236    4.76344844824851   -6.67438832344835
C         6.24222022358101    1.25763410836781    3.14289060680446
H         5.29361397181796    0.25969517904140    1.50184899131524
C         4.78710578698532    2.46663017192419    4.61275129227332
H         2.70392892058655    2.41516499015151    4.11667523754322
C         6.06125867077100    2.05181344046858    4.26292088956506
H         7.23395543280520    0.92968447934018    2.86711439118061
H         4.64119272187168    3.08854525519883    5.48399973247590
H         6.91062898082799    2.34668975179774    4.86125466840969

