77
CSD_code = SEMRIL | q = 0 | S = 0 | Stoichiometry = C44H28N4Zn | MND = 4
C        -2.84861656053316   -0.93973181508233   -0.50074653042264
C        -4.08138944784451   -1.22917794337469    0.17714638847859
C        -3.84358233333982   -1.08209909054517    1.50128919842435
C        -2.46496975832366   -0.70221927052603    1.63576465929435
C        -1.84449244399954   -0.42952061312842    2.85378166150441
C        -0.52626885175521    0.00057389583044    2.99536688360825
C         0.10546963698757    0.26373377538094    4.25806791293023
C         1.37248449417332    0.65499164705660    3.98760423681624
C         1.52293383448819    0.61725979187927    2.55969141592241
C        -2.69530372445216   -0.95660709307694   -1.88614768440495
C        -2.64829430362335   -0.59969728679981    4.08480909687238
C        -2.97052763183670    0.49908289374921    4.87519385066744
C        -3.72600921339028    0.33876282751108    6.02262758548319
C        -4.16347147559489   -0.92051623278986    6.39787612254642
C        -3.84465861367319   -2.01955575415898    5.61790450854719
C        -3.09473533185193   -1.86090729750990    4.46659317789989
C        -3.86488693070275   -1.35474424938759   -2.70073875051138
C        -4.37155076621508   -2.64819255104961   -2.62271747177097
C        -5.46163258315507   -3.02080637684092   -3.38821627307490
C        -6.06280448662743   -2.10522256082766   -4.23568357300378
C        -5.56747443677252   -0.81441182042918   -4.31550956176815
C        -4.47385952084190   -0.44115449618710   -3.55551966591418
N        -1.88819417143877   -0.61418335212573    0.40652488171060
N         0.35611944878178    0.22022184234163    1.98304871061565
Zn       -0.00000169803076   -0.00000058996089   -0.00000002619836
H        -5.00379088604560   -1.49113740890211   -0.30331386815851
H        -4.53360629218592   -1.20064122395604    2.31376729575366
H        -0.36164125331763    0.15546925248501    5.21738553882102
H         2.13514698035859    0.94854893257067    4.68211202088163
H        -2.63293693526515    1.48122590484808    4.57748020237889
H        -3.97480993980325    1.19948351662119    6.62594570844021
H        -4.75141853026085   -1.04493524848327    7.29522823315125
H        -4.18206813385948   -3.00417652241320    5.90748084349458
H        -2.84141390744773   -2.71733177404437    3.85852534823003
H        -3.89796994750214   -3.36228840346870   -1.96455466994132
H        -5.84339830054108   -4.02936500478330   -3.32366310300721
H        -6.91496924587473   -2.39655571459911   -4.83179239646511
H        -6.03495083405503   -0.09556849186554   -4.97265200602123
H        -4.08928409881873    0.56694344592142   -3.61202325165021
C         2.69528988918467    0.95665184732449    1.88614687518011
C        -1.52294166270174   -0.61723363444361   -2.55969061837872
N         1.88819336972366    0.61418307775724   -0.40652440325096
N        -0.35611955695581   -0.22022157341298   -1.98304711529247
C         2.84860831986457    0.93975535519280    0.50074623343996
C         3.86486338941354    1.35483108782684    2.70073270081088
C        -1.37249108554417   -0.65497153202372   -3.98760314960176
C         2.46497800338617    0.70219271180799   -1.63576231510355
C         0.52627595701217   -0.00059801996706   -2.99536347979439
C         4.08138482033296    1.22919225244724   -0.17714446156282
C         4.37149504578160    2.64829065117069    2.62268499331809
C         4.47385780945196    0.44127427546910    3.55553290190703
C        -0.10546501693686   -0.26374923440539   -4.25806522650808
H        -2.13516003087612   -0.94851090842969   -4.68211154937045
C         3.84358849327600    1.08207890283636   -1.50128540334780
C         1.84450660980565    0.42947563325687   -2.85377759784466
H         5.00378129886202    1.49116724629427    0.30331674166003
C         5.46156421526354    3.02094881828405    3.38818000658195
H         3.89789586052442    3.36236015633747    1.96450898934171
C         5.56746038927965    0.81457617272700    4.31551881954052
H         4.08930613688771   -0.56683340696011    3.61205842316261
H         0.36165153273756   -0.15550071185926   -5.21738208631105
H         4.53361864447592    1.20060322624044   -2.31376071347471
C         2.64832182854421    0.59961137481077   -4.08480154862480
C         6.06275690426652    2.10539840528739    4.23566781334519
H         5.84330155293300    4.02951508052556    3.32360972118159
H         6.03495201448230    0.09575776920536    4.97268109235729
C         2.97053893130830   -0.49919404787761   -4.87515624193654
C         3.09479088728180    1.86080238717090   -4.46661335674837
H         6.91491017587129    2.39676651232315    4.83177570195825
C         3.72603142640308   -0.33891752448569   -6.02258841358283
H         2.63291978142425   -1.48132590306274   -4.57742333093740
C         3.84472563564475    2.01940699535603   -5.61792346157584
H         2.84147674273605    2.71724737656824   -3.85857317087594
C         4.16352128219972    0.92034281505474   -6.39786500937263
H         3.97481396957967   -1.19966301430236   -6.62589088477383
H         4.18214963594229    3.00401278975680   -5.90752638431869
H         4.75147499332396    1.04472705032426   -7.29521774135918

