48
CSD_code = SEMTOU | q = 0 | S = 0 | Stoichiometry = C19H24ClNO2Ru | MND = 9
Ru        3.41898454374539   -3.85130891819590   17.14647033710367
Cl        2.72256688797892   -3.96879987751699   14.92519495090323
O         1.71506629671211   -2.76477588644727   17.65264519762962
C         1.60311783350156   -1.55083124622036   17.28729900491908
O         0.74071552077862   -0.77889123851022   17.64539316600313
C         2.72027601327319   -1.08305023414258   16.29032864653487
C         2.95961142559540    0.42567835107565   16.36528851492321
C         3.91426340024735    0.86756185915579   15.29372859728394
C         3.48149933507089    0.98268266217157   13.97747047454561
C         4.36314797267770    1.34323231911245   12.97552266737088
C         5.69275469536956    1.59245213173223   13.27481477879473
C         6.13428411381154    1.48014450030672   14.58119710655988
C         5.25009619390967    1.11641874403019   15.58278312620227
N         3.94888829635175   -1.85368800913607   16.58326218237750
C         4.56170212601069   -5.82822340054222   16.85998952294959
C         4.90713842806195   -6.56202720163504   15.60311597083453
C         5.43128450994110   -4.88316192644219   17.42696249144615
C         5.08030924572507   -4.20825958196034   18.63182591937696
C         3.87602376346907   -4.48192269553639   19.30397384025325
C         3.60072104221953   -3.88158719428549   20.66082080550519
C         2.13475979006473   -3.48935346790376   20.84875978773414
C         4.04008488598475   -4.88314755830445   21.73674567774095
C         2.98227012930005   -5.40967366711781   18.69954913621527
C         3.31367389023938   -6.06972061838918   17.50781014957943
H         2.37810952776446   -1.36903879354669   15.28674323841662
H         3.34307142193505    0.68042633742043   17.35693943242561
H         1.98942780092285    0.91152664801123   16.25205760250927
H         2.44469822015632    0.79084496938109   13.74368350164055
H         4.01307223551179    1.43201441356922   11.95793309408395
H         6.38101510041946    1.87669730822198   12.49292361177646
H         7.16876696170256    1.67738545710407   14.82285032489218
H         5.60212288037024    1.04223139507987   16.60359484593296
H         5.80568999672070   -3.54346271922453   19.09234331616765
H         2.05273979275911   -5.65522234899114   19.19902689766261
H         2.64577138321030   -6.82190928890442   17.10078344563274
H         6.41118231901291   -4.72200671839115   16.98896476898490
H         5.96199209520950   -6.45624751451872   15.36109924923287
H         4.66065218780198   -7.61830397754869   15.69405631315579
H         4.32040520494706   -6.14776420907253   14.77921823463213
H         4.21523744210217   -2.97861808341524   20.76175265586270
H         3.86841685378704   -4.46392533675053   22.72485317709403
H         3.47127535803547   -5.80654219706059   21.65002861162113
H         5.09802980805941   -5.11969181751631   21.63860981387058
H         2.03375790304531   -2.84377179316495   21.71752832901655
H         1.51194579799409   -4.36600661311225   21.00854404997559
H         1.76443967957676   -2.95752934554220   19.97444776044877
H         4.44877994049838   -1.37928637449082   17.34234740422015
H         4.55035974842116   -1.83524724283111   15.75441826795594

