48
CSD_code = SEMYOA | q = 0 | S = 0 | Stoichiometry = C15H21B10CoO | MND = 11
Co        6.86062372287767    2.62869599256582    9.34090420509562
C         5.61971664000093    3.54004981661380    8.00181096212309
O         3.35542239757386    4.26898025740319    8.09372920486513
C         6.44496614419155    2.56939699689395    7.31178154402352
C         7.52426806792108    2.04267967011882   11.17912256224659
H         8.38072372150724    2.40003964098014   11.72369951557148
C         6.19154342675711    2.49503049570699   11.33630219307477
H         5.86493114362264    3.28519065678862   11.99061513786944
C         5.34912279859925    1.62134898651372   10.61757537979264
H         4.27284938645991    1.65608059126755   10.60355219846674
C         6.14632350614278    0.63796916900095   10.00791021765066
H         5.78329457464752   -0.20910234287551    9.45077401043541
C         7.49327081207006    0.90006891549328   10.33639745366776
H         8.33260221414484    0.26472465289578   10.10861484353871
C         4.14200131339539    3.34573825344147    7.99743268901190
C         3.67919516823542    1.94239237186929    7.89805410774060
C         2.46101271376939    1.57328795614168    8.46315790006108
H         1.86485748486428    2.33394637571354    8.94543117348480
C         2.04234431215265    0.25918261567836    8.40779858354331
H         1.10125509609754   -0.02985346870759    8.85079794949560
C         2.83458834426754   -0.68975411375119    7.77761370578109
H         2.51048454001378   -1.71911372985720    7.73432961779672
C         4.03532779915660   -0.32276341389959    7.19592359474863
H         4.64125805499078   -1.06383584103772    6.69347771177246
C         4.46984659789370    0.99442599280788    7.25039467439949
C         5.72824706122103    1.44668839413810    6.58057719847621
H         5.45228061274960    1.81585269701711    5.58396737104439
H         6.39674066217503    0.59857544236219    6.41968382630287
B         8.05093913216198    2.40647949573605    7.53379129210838
H         8.41435176641667    1.32315772883433    7.23688433721338
B         8.83177828614859    3.36444186039954    8.83752213644815
H         9.69308566704330    2.83270058293297    9.44008312815775
B         7.81427031070095    4.58510684929442    9.57949822766639
H         7.95860604276597    4.88842563263679   10.70809054402746
B         6.12990521229276    4.74766920565309    8.93281549390991
H         5.25099838184858    5.19351091624789    9.57532899017774
B         7.44474508562346    3.62109635449137    6.31729158412716
H         7.31419470377803    3.32846394143405    5.18367569870359
B         9.04088438969292    3.75729781405231    7.10872368700551
H        10.05050480686426    3.54531168785972    6.54386786183341
B         8.95896918139652    5.04640512992624    8.31366571233241
H         9.91239502176943    5.68027701948581    8.58158766072535
B         7.35818372168376    5.79289519089098    8.34931385205971
H         7.25497502461781    6.93208292175567    8.62157184710117
B         6.32083668664397    4.94169682252364    7.12433690219404
H         5.47007862000591    5.42183389446942    6.47301108313780
B         8.01302870498912    5.19702260491681    6.80413194912980
H         8.29537093605620    5.95580131517702    5.94957847986023

