47
CSD_code = SEMYIU | q = 0 | S = 0 | Stoichiometry = C15H22B9Co | MND = 10
Co        0.98193175262172    9.85389805366333    1.39682971074039
C         2.80150202376173    9.46718771522412    0.55274432902315
C         1.74985772999103    8.37204537158673    0.21828789161914
C         0.82602755903229    9.33506398041241    3.60991878871108
H         1.35036448564674    8.64257522989601    4.24557075254945
C         3.48963922185778    8.06899678221857    2.58599385592136
C         2.54915755936638    7.08871354555023    2.28629171155260
C        -0.80771666667796   10.27998169691570    2.32038936282452
H        -1.76097518607941   10.43893204572450    1.84562106298759
C         1.16203606310930   10.68516097691319    3.40718340458969
H         1.98642125070525   11.20263068045635    3.87036306642502
C         1.78240025341334    7.06306354601210    0.99055583540595
H         2.22825204879893    6.28251934356520    0.36101029171721
H         0.75950554030261    6.73455480412422    1.19887844267056
C         4.16739703152777    8.00929617390587    3.80089793290448
H         4.89473254257973    8.77494707916748    4.03251131073119
C        -0.37340468898392    9.07760322242037    2.92308553785801
H        -0.92634232858148    8.15270923906326    2.95176323164652
C         3.92432657061562    6.99905486907831    4.70929044565516
H         4.45782371239255    6.97372072053409    5.64772453372084
C         0.14959916996919   11.28240334659644    2.62232075168531
H         0.04923164586613   12.33455695288536    2.41684604402952
C         2.98781064116740    6.02200759434620    4.41037526475023
H         2.78517167642636    5.22798091417669    5.11351754204010
C         2.31090009514741    6.07321885926211    3.20872015518017
H         1.57730523633402    5.31458633618762    2.97389131358422
C         3.82668758482666    9.19182690988322    1.64092406975682
H         4.79134713547697    8.95075445946890    1.17644105106694
H         3.99309709273077   10.10097913489196    2.22689151868883
B         1.44380228294678    8.27751529212730   -1.47315113127727
B         0.70887578039381    9.83606450575958   -1.87774679501957
B         0.30340717532728    9.04266526093679   -0.34954631444156
H        -0.70459215759004    8.46430898335995   -0.14927387400123
B         2.20512677150713   11.02300510181725    0.25483076671155
H         2.61255078146317   11.91865671297395    0.90484745420889
B         3.06060161765368    8.56042284346000   -0.90677812057049
H         3.90132733365757    7.73953656370673   -0.86292658959104
B         0.55959570970654   10.80953500763457   -0.40672731183917
H        -0.30183648277055   11.60321998728006   -0.29727202229623
B         3.35793256808479   10.27054202782041   -0.86447772311134
H         4.46336233265488   10.67232879272325   -0.85886840001182
B         1.92796380400473   11.10551835644150   -1.49024926953944
H         2.00069692950450   12.12340145002966   -2.07459878204443
B         2.43376406019414    9.56109988558302   -2.21252230595259
H        -0.08499641847222    9.95148261780998   -2.73762073858179
H         2.86720194670023    9.47733939915949   -3.30163185207378
H         1.15302921168850    7.22548762724638   -1.91162620060463

