81
CSD_code = SENDUM | q = 0 | S = 0 | Stoichiometry = C37H34BN6OPRu | MND = 6
Ru        7.66026068491954    2.38571834156212    2.42168362406705
P         9.60769357485278    1.68369808816369    1.37595090323412
O         5.86132435433125    1.77214711303061    0.12530718035952
N         5.99640935077555    3.02183588684003    3.46059358690892
N         5.82406457947594    2.69287619855513    4.74208927960099
N         8.68029936013345    2.98724037476210    4.13779763568254
N         8.20542151291573    2.64871659819519    5.34045549662499
N         7.32769108822732    0.50241422331956    3.46421509363463
N         7.03178214589664    0.54067066744760    4.76409175479600
C         7.84038242972412    4.28562321939638    1.67476111760116
C         7.89083399488641    4.66449473140603    0.39452441387772
C         8.02722623522855    6.02059235440182   -0.13089150050317
C         8.22766799610442    6.19387017086665   -1.50274537535393
C         8.37999730390197    7.45008211419312   -2.05280524502307
C         8.33756600633344    8.58763424722771   -1.25543949582805
C         8.13749732576882    8.42280674815019    0.10967375589261
C         7.98495871108691    7.16756850905941    0.66345747817351
C         6.60182100691985    1.96119816896701    0.98686166250945
C         4.94256465135702    3.72697719743909    3.07379593105919
C         4.05462249158881    3.86055910092475    4.14139887576464
C         4.65668009649676    3.18618977251615    5.18205716819014
C         9.78324521919606    3.69945586550301    4.33039609578821
C        10.03672088609534    3.81977436037011    5.69639379239369
C         9.00411822979782    3.13632897503723    6.30121576579864
C         7.30337796213260   -0.76665318695778    3.08677507014463
C         6.99090715315388   -1.58058194948809    4.17489462073627
C         6.82409366903229   -0.70232808867374    5.22364589882795
C         8.52386013916147    9.95156990670427   -1.84997584580543
C        11.18610047156449    2.61716796054532    1.43530479349667
C        12.40680990171805    2.02064771589995    1.73235868277344
C        13.56781564422396    2.77553339763191    1.73645969100367
C        13.52707646337777    4.12695018720853    1.43963910762307
C        12.31508283721841    4.72777469443542    1.13807748624495
C        11.15227985746654    3.97963734895959    1.13829886280581
C         9.44697172059908    1.40228974358476   -0.42114745355001
C        10.14282052284631    2.12449276335797   -1.38286866095119
C         9.90245697003887    1.90040887641573   -2.72842699080343
C         8.97385527628390    0.95490911454760   -3.12661774825302
C         8.27696468915984    0.22895892841547   -2.17291514190340
C         8.50756539042817    0.45657533612421   -0.83064632930917
C        10.19290960311409    0.06242236196506    1.99410248315031
C        10.46385531069727   -1.04593431434069    1.20144740574117
C        10.85233274463724   -2.23935912584968    1.78771563916117
C        10.98014983811382   -2.33672648869290    3.16248613368510
C        10.73282160460592   -1.22909009564699    3.95861879985965
C        10.34090130815987   -0.04002975809040    3.37684291268141
B         6.88704053384665    1.87950529919673    5.49672647648869
H         7.87709629181944    5.09544726209842    2.41713093945110
H         6.60209446946526    1.72788062450961    6.63421573996769
H         7.87297534069204    3.90111433694183   -0.38212059779231
H         8.26297897450024    5.32092679189922   -2.14125234712282
H         8.53110021330786    7.55355375023351   -3.11907760156705
H         8.09715600621974    9.29499363973314    0.74885956936593
H         7.82448442370979    7.07879341929957    1.72810375400774
H         4.86652048284390    4.10691091448612    2.07145754576750
H         3.11475589473407    4.37246783437826    4.14921742789884
H         4.33394540094447    3.03070822446185    6.19149212258001
H        10.34727686319068    4.09511163076761    3.50681680885158
H        10.85086953779851    4.33175897566387    6.16622697606548
H         8.78970068461226    2.97077468317534    7.33748447837364
H         7.50938859303427   -1.05415208734747    2.07316165240621
H         6.89970153485391   -2.64689948934786    4.18877321416161
H         6.57324909474215   -0.88012375483040    6.24964507501795
H        12.45820621407802    0.96629758575839    1.96139613503060
H        14.51011507976701    2.30181456467742    1.97101482594690
H        14.43613387424574    4.71013228604457    1.44310141391356
H        12.27263137154909    5.78142241791767    0.90325163779759
H        10.20077932657650    4.44331032141522    0.91457484898313
H        10.86719141059615    2.86834060305212   -1.08611730794207
H        10.44280013104373    2.47241336291357   -3.46872100016521
H         8.78813792893824    0.78588399774919   -4.17696768244440
H         7.54747866659670   -0.50682049587505   -2.47797135343703
H         7.95376001989449   -0.09505181152218   -0.08156269357792
H        10.37434990427165   -0.97913752737466    0.12668146427789
H        11.05613346556495   -3.09831241182983    1.16482444589150
H        11.27656500009658   -3.27191733379299    3.61392669994667
H        10.84075747382519   -1.29710810744187    5.03151463257141
H        10.15197156923288    0.83023969538744    3.99332284098498
H         9.58514972994464   10.20278324357641   -1.88889994729113
H         8.13372810859097    9.98843553947545   -2.86506273208195
H         8.02111807110399   10.70819365871682   -1.25137587478949

