85
CSD_code = SENWUF | q = 0 | S = 0 | Stoichiometry = C31H40CoF3N2O7S | MND = 5
Co        5.25877963822933   -1.77109179645180    7.27428951611190
S         2.33968070995463   -0.86658793474078    6.98111649233373
F         1.27520452452961   -0.38426387556193    9.36725279644549
F         0.23823766575654    0.59401952235773    7.75280862484472
F         2.14955992356268    1.33860011997922    8.41001838093613
O         5.62891477786772   -2.89043664140900    8.68477554497471
O         6.15721014974868   -0.41981081598523    8.15884173839889
O         3.19389386884012   -7.51532393130127   10.29946462359234
O         5.64633349218734    4.98156773591360    7.37202837818855
O         3.57733640903521   -1.04491803106333    7.77087307864819
O         1.55247881512977   -2.05504296469495    6.84695633643697
O         2.48713746025367   -0.06911224203326    5.79870202791337
N         4.41195765761662   -3.12911624828864    6.32296632552158
N         5.26871547544037   -0.81005810785001    5.68866315868951
C         5.10923663522621   -4.03160433561926    8.98716692663152
C         5.53807355521995   -4.75038695099041   10.15592176082864
C         4.85924791188224   -5.88708885252114   10.50930445139299
C         3.77333737378562   -6.40015850006364    9.77212532566037
C         3.40934892871430   -5.78286094906476    8.60301051070851
C         4.09284019131065   -4.62618539653455    8.17906821208317
C         3.78263655466357   -4.10003069493854    6.89976799591355
C         5.97611403823068    0.84341478156336    7.95782628253788
C         6.20600981730039    1.79346257285852    9.01045100238741
C         6.08308737278083    3.12992743602459    8.73202487766644
C         5.71768468535235    3.62352207730858    7.46552574532837
C         5.45454076323847    2.73454456381216    6.45412705313620
C         5.57770350270337    1.35196089334169    6.68534925136648
C         5.30197867359973    0.47394078091568    5.60362712529284
C         4.02475667814343   -2.72421742692140    4.98150666687752
C         3.97361963043778   -3.83592555262337    3.93255319677138
C         3.49913713323381   -3.22540798479017    2.61505760786715
C         4.41691274795930   -2.09089867455721    2.16922005818550
C         4.54944668431962   -1.01117851812180    3.24445543712668
C         5.03806945012073   -1.66296897295946    4.53573949329754
C         6.70927407255500   -4.23269835560907   10.97714012752469
C         7.10121612415037   -5.18601643450164   12.11069915413926
C         6.31560091605541   -2.88391149194086   11.58846016985604
C         7.93177610766423   -4.05361109328354   10.06628760381968
C         6.48938214831081    1.29643511415326   10.41877810837957
C         7.73220184578952    0.39786211484320   10.42573900385807
C         5.24818698524994    0.51776427553849   10.87956829087174
C         6.73272480225656    2.43672907886178   11.41336252931666
C         1.44112867873300    0.23023578065479    8.19981256322471
C         2.08890008700443   -8.06869043906292    9.62735204264720
C         5.23207400556140    5.54088888366434    6.14995080551025
H         5.12471332259713   -6.44374496787451   11.39200560120998
H         2.61322502719302   -6.15960304038354    7.98086832772643
H         2.99756380427651   -4.61577241587807    6.35131102142445
H         6.24435145909118    3.87527868832857    9.49225005317062
H         5.13284952155049    3.06046866313128    5.47771992273541
H         5.13441929745390    0.94891024946118    4.64119218816141
H         3.03380161664368   -2.25787426231276    5.04340164730163
H         3.28344821477502   -4.62309192666771    4.23534538816161
H         4.96586507682586   -4.27879158352105    3.81517013593259
H         3.46650560725323   -3.99571652841474    1.84231695095294
H         2.48771219333133   -2.83872671807789    2.75096335607254
H         4.02657720665589   -1.64353602042313    1.25385575033935
H         5.40741832884033   -2.49550046625112    1.94528664346326
H         5.26094083538398   -0.25954338163955    2.89685969567768
H         3.58766354629407   -0.53203856164116    3.43536416710822
H         5.99423621085391   -2.17328687817306    4.33545945867539
H         7.36767331810611   -6.16798615196050   11.72666977674233
H         6.29804380484742   -5.29015835489229   12.83579682635791
H         7.96724181957379   -4.78135890445346   12.63021797806740
H         5.44364663242964   -3.00015275487621   12.22860053273767
H         6.08156078381303   -2.17738731687380   10.80138907234093
H         7.13674690749531   -2.49168685586385   12.18414593539883
H         7.72629785419202   -3.32460317403534    9.28873442307101
H         8.19853144943543   -5.00088677428957    9.60104434314791
H         8.77995549101392   -3.70371504509024   10.65047987696808
H         7.93050412912612    0.04906110126082   11.43654022641104
H         8.59810344074169    0.95707658095740   10.07600231684167
H         7.58569136298751   -0.46093297470524    9.78087739463399
H         4.38838345060852    1.18362740402323   10.92015801962427
H         5.41306734610803    0.09948303379184   11.86976856245913
H         5.01847911222270   -0.28748309107621   10.18773394309843
H         6.93387200628190    2.01237187448640   12.39477734755027
H         5.86061892180114    3.07941211985100   11.50164084767416
H         7.59262352328883    3.03613760173766   11.12326592227060
H         1.76092448831339   -8.90799585552410   10.23843958079847
H         2.36601970527612   -8.43268594153714    8.63241130365467
H         1.27278928564002   -7.34537928878206    9.53502505509898
H         5.22440697182196    6.61858202451021    6.30533169565160
H         4.22635669777871    5.20631847629257    5.87686221002518
H         5.92858155844195    5.29733889907067    5.34068009808780

