64
CSD_code = SENWIU | q = 0 | S = 0 | Stoichiometry = C19H31B10ClIrNS | MND = 8
Ir        5.30423172890245    7.14865931022492   17.55463510172315
Cl        3.49126232451886    6.31145358797668   16.32960824328560
S         5.68329118434195    9.04763107175104   16.13676131493421
N         7.49922965392525    9.33470142803714   14.19477249465994
H         8.24621426317490    8.87434948164259   13.68102334067398
B         6.25164783907846    5.97446304318365   14.53645425397001
H         5.23529824833139    6.37852286120079   14.12391411281863
B         7.78020225981413    6.31049055862519   13.69166375700361
H         7.72040863818390    6.91484305281068   12.68090477861429
B         9.00507518903809    6.72815670833528   14.88752512759844
H         9.76233429378107    7.60890815366951   14.67776988775343
B         8.26324108987144    6.65238820045724   16.49987221078867
H         8.47372259844767    7.48293205029557   17.30431912460386
B         7.72766856880147    5.01186447342487   16.77774538795242
H         7.62441279490901    4.60571745793732   17.87037124990192
B         6.49576441054604    4.60976241579231   15.59699527216653
H         5.58113442307195    3.95221922636307   15.91475384405413
B         7.25129655991196    4.64611937905928   13.97041424779420
H         6.88723526896073    3.95549860646357   13.09309453696112
B         8.97059500239326    5.10304769114461   14.18948351038765
H         9.81212899047514    4.73352023355304   13.45595601655716
B         9.27234977807144    5.32955923336671   15.93721028015910
H        10.31297453832822    5.11812093629569   16.44244878410263
B         8.17352019842705    4.03568472756139   15.36788585908693
H         8.45032248311840    2.89894305865885   15.48071628659704
C         7.34827288693425    7.14668886488761   15.13633476369343
C         6.61395662372698    6.20449162948756   16.22907046650930
C         6.89315353294716    8.53640619202119   15.09301342939662
C         7.33817636860517   10.67248489165123   13.83643409070029
C         6.28169607920510   11.48280886673978   14.24153019381410
H         5.50358836939236   11.09312185332374   14.87333438493769
C         6.22018134889989   12.79738011688808   13.81407371197496
H         5.39404880732010   13.41437910415216   14.13323578567240
C         7.19643528480329   13.32266092007281   12.98628542874262
H         7.14037617859874   14.34990046014564   12.66116784699941
C         8.24463377701329   12.51602704126298   12.57177873624764
H         9.00901971483881   12.91073272533902   11.91977818622195
C         8.31489447585073   11.20304596755056   12.98914656429934
H         9.13193364721046   10.57553214620179   12.66061537755149
C         3.95980507512951    7.11223813892411   19.41006188652069
C         4.99551385341395    6.09710673151382   19.49774621217998
C         6.24688959998313    6.76864991442979   19.66907955708094
C         6.01381705959523    8.14958005373176   19.46099329980260
C         4.58497222414216    8.36004312895863   19.34283294161728
C         2.49704000520822    6.82586154292668   19.47178615435782
H         2.16273700511789    6.33636051349879   18.55628301548597
H         1.92783861011719    7.74351702370981   19.59588399848457
H         2.28393165670755    6.16273631546319   20.30977835489459
C         4.72404925895096    4.64800894695832   19.74824978183327
H         4.52090076722299    4.48079698316046   20.80831331724177
H         5.57326563170025    4.03438672440549   19.45720577542332
H         3.85728410552961    4.32436652304527   19.17722373562256
C         7.53071374043690    6.17905406604899   20.15465745665322
H         7.75215390678496    6.58016530315932   21.14538889734336
H         8.36647758192125    6.41992048180680   19.50020019139663
H         7.45739845807249    5.09872779362693   20.23418953353609
C         7.02235310814561    9.23605930114418   19.64688824347120
H         6.82149252342265   10.08040248203186   18.98898743821287
H         8.02841776528366    8.87216858778173   19.44930016593915
H         6.98923185981476    9.59912830606361   20.67624213209139
C         3.92431945426449    9.70137421127176   19.31835541831403
H         4.52286291635100   10.42103770034817   18.76204732356879
H         3.80224872394227   10.07957387031162   20.33568001926962
H         2.94365568494851    9.64351762812151   18.85172715874650

