89
CSD_code = SEPKAB | q = 0 | S = 0 | Stoichiometry = C31H51IrO3P2S | MND = 5
Ir        9.09409681706324   14.65213106300161    0.83361974129121
H        10.49709348938041   15.16228081346931    0.56636341478453
P         9.83427203559883   12.81184427807183    2.12270439823795
P         8.12057085439813   15.96355583909948   -0.88887194358471
C         9.63731937230619   13.44785359116072   -0.72825546106326
C        10.27528924590692   12.21849240730486   -0.50972084716060
C        10.45961456239687   11.32351304325960   -1.55456285606539
H        10.92286325422172   10.36524748006125   -1.36419239236179
C        10.07576849333449   11.65878712301508   -2.84107884465122
H        10.20074640445008   10.95256880536958   -3.64809896805737
C         9.59312603068529   12.92997441892538   -3.09481502295481
H         9.37766343132851   13.23062723375392   -4.11101350536236
C         9.39903381593630   13.82900282598204   -2.05423431583905
C        10.87637405237189   11.96464233527083    0.84354580910799
H        11.84545981967349   12.46847953318150    0.84614963290250
H        11.04324908674344   10.90695783118514    1.03552717352944
C         9.05487812312748   15.26615563313606   -2.33094991984902
H         8.54360038722419   15.39270258604478   -3.28540193917024
H        10.00268372501550   15.81115803939004   -2.37578695052711
C        11.03563191082052   13.11064497436541    3.56068627960586
C        11.54864627785622   11.84518245907362    4.24438455775490
H        12.01394081799045   11.17159684413196    3.52676143565726
H        10.75485122799744   11.32152919870493    4.76980275451559
H        12.30397207573868   12.12065654973812    4.98062077193535
C        12.23165286946170   13.88705550412847    2.99961679921010
H        12.78298209557796   14.34449501357408    3.81960331743242
H        11.89122189671823   14.67830791017205    2.33396041797047
H        12.91941769254230   13.23920188692892    2.46060440125922
C        10.32802874929856   14.01645861892925    4.56847991733237
H        11.01237522053729   14.29076153403624    5.37151410296818
H         9.45667144632934   13.54330685533038    5.01038425881216
H         9.98906329852004   14.92734997552811    4.07891401995681
C         8.59862433461508   11.41489356763138    2.51917173391963
C         9.21343404291345   10.00919201647200    2.53743986833654
H         8.48022156624827    9.32292618116910    2.96110333914175
H        10.11155650315730    9.94641688275578    3.14271100152011
H         9.43578918828616    9.66121366655219    1.53166551593353
C         7.56711482775327   11.45240568214805    1.38783901918169
H         6.85857194146795   10.63226826986367    1.50397354776979
H         8.04814215849050   11.35596003827060    0.41469952094650
H         7.01324180533033   12.38551541261489    1.41685209303996
C         7.89168292453246   11.66739453521195    3.84976525189849
H         7.54960122798433   12.69744402742293    3.92982378152982
H         8.54282503474125   11.44849258148661    4.69409259315125
H         7.01934685978610   11.01751635680309    3.92798783906988
C         8.48731945160970   17.82420959416655   -1.02375002086031
C         8.66404987430908   18.34373289523698   -2.45092676900388
H         8.84333989190863   19.41816974453093   -2.41398878625344
H         7.78362869746919   18.17530522178413   -3.06203867027320
H         9.51853121183553   17.88365639679802   -2.93874228025684
C         9.79986341192721   18.01178502585188   -0.25880210905509
H        10.09681541404715   19.05985484028665   -0.26989283379650
H        10.59937337912109   17.42250648429161   -0.70350040076165
H         9.68096847350820   17.69168936409039    0.77405394975999
C         7.40292859966257   18.62996487082789   -0.30960372100069
H         7.17768354739254   18.18847224573949    0.65941269604742
H         6.48903032372439   18.68570008247534   -0.89697426402676
H         7.75023013795484   19.64976724918018   -0.14297073713717
C         6.33709544948177   15.59217686467913   -1.44426398194258
C         5.91988852379309   16.27418753325929   -2.74746434303434
H         4.95650224358571   15.87037639292528   -3.05949299560702
H         6.62517324000664   16.09504541993458   -3.55471130237824
H         5.79715731551258   17.34610737978262   -2.61438916510080
C         6.29003412731893   14.07160856484178   -1.62070188016782
H         6.64106944259333   13.58383381333424   -0.71420310530850
H         6.90231172895490   13.73563617233019   -2.45306975124027
H         5.26427421163852   13.75149680169642   -1.80152822599548
C         5.33156902848733   15.95448490978387   -0.35235817918049
H         4.33403271808729   15.63180008834021   -0.65226459370727
H         5.28912321923451   17.02095563017549   -0.15229018254246
H         5.59205622553769   15.43682994360149    0.56453162671155
S         7.32637339997093   15.34763063437307    2.84878184154634
O         6.99768989229026   14.43580692341841    1.73638847537157
O         7.28018482998477   14.70810833485639    4.14096360791651
O         8.57467934795417   16.06020736552185    2.55769612580114
C         6.04152956803835   16.59356369548002    2.92018389319895
C         6.38884740338818   17.92192949202411    3.05390733663295
H         7.43592455652751   18.18378264480231    3.07820239076950
C         5.39762858570549   18.88438617068308    3.16206303022346
H         5.66967702386762   19.92548541632704    3.26232188511823
C         4.05718227237358   18.52169592600880    3.14719468641968
C         3.72582494617640   17.17375757994991    3.03466960392606
H         2.68548582058907   16.88164475543552    3.03539392854431
C         4.71318728374938   16.21212091188158    2.92772334053641
H         4.46923426191662   15.16351086642825    2.84922566821789
C         2.97496646159752   19.55182975557138    3.26675688370825
H         2.26227476692744   19.45322451553721    2.44937931290523
H         3.38896410947931   20.55665031019698    3.25122832792658
H         2.42968458501137   19.41694974790802    4.20026434421517

