28
CSD_code = SEPKUU | q = 0 | S = 0 | Stoichiometry = C9H11ClN4OPdS | MND = 4
Pd        2.27519754988468    0.46788085294857   11.20197372582393
S         1.82038980387204   -1.76360609706124   10.87272477382306
Cl        1.81617802953992    1.19570082145649    9.17094422662616
N         2.61678619272001   -1.33127764389023   13.42417640745670
N         2.69941329437488   -0.07834017580470   12.99990342427515
C         3.14240232178733    2.19498079067159   13.27675244501335
C         3.08502997658641    0.87012024795573   13.81173956339048
H         3.34536617571214    0.66252012199534   14.84188547333447
O         3.86868369049170    3.13504031568203   15.33028056642099
C         3.53128452842878    3.32300522188951   14.03407931961945
C         2.21051620449872   -2.19587740935320   12.51441372521605
N         2.05485203674993   -3.48327905169898   12.83716133522563
H         1.79526183568286   -4.10419693442231   12.08453777125846
C         2.43509063510074   -4.06863780227591   14.10048750126469
H         1.59756742536564   -4.66582746113088   14.47506623346079
H         2.62480476400677   -3.24449518037198   14.78838423803443
N         2.79574859384442    2.33343201822267   11.97650805491407
C         2.81466481405625    3.52394992544099   11.39266019778901
C         3.54821214708169    4.56355378703116   13.41780732644350
H         3.84153731363408    5.44102346758257   13.97825471346564
C         3.18574752523392    4.66694762147572   12.08003257415412
C         3.67617430886928   -4.94428514334389   13.95743029371073
H         3.94300975151242   -5.37020042809433   14.92031789591526
H         4.51195037153054   -4.35300795444110   13.59276581751949
H         3.49264813580827   -5.75655792537761   13.25756153441021
H         4.11082649856498    3.97655943045057   15.73811463638013
H         3.19251490166515    5.62262476523765   11.58291434282685
H         2.52324117339366    3.54714981922696   10.34962188222657

