78
CSD_code = SEPKOP | q = 0 | S = 0 | Stoichiometry = C26H47IrO2P2 | MND = 6
Ir        8.00490391610161    0.92702974802318    3.39852431886203
H         8.34988836275128    2.09121763409333    4.30252480460816
P        10.24109940313739    0.25681988604430    3.48103100486078
P         5.95251766811504    1.91295493506883    2.81479466865864
C         8.70646329205528    2.17308818775581    1.94278452118038
C        10.07998082935580    2.42497124891199    1.83104191957187
C        10.57176714476730    3.24751014547737    0.82825637567280
H        11.63633641946060    3.42484838329061    0.75237446440127
C         9.70852369804059    3.84895401746253   -0.07016924487729
H        10.09397846070790    4.48956156618291   -0.84945863886673
C         8.34860775512845    3.63043425334172    0.04323447219204
H         7.66776213030075    4.10556062964705   -0.65044011681958
C         7.84576489265400    2.80566945630355    1.04120208438785
C        11.01169826198860    1.81553822162680    2.84378639109585
H        11.07841871081390    2.49710011308868    3.69749846333613
H        12.01517003203392    1.67227521468914    2.43948189999665
C         6.36295419037771    2.56289810825507    1.13256682024799
H         6.09466960716373    1.78833897489565    0.40895187719187
H         5.79352939961857    3.46320993424890    0.88823127189636
C        10.86999217309229   -1.02493760460012    2.22184383754662
C        10.22690635429103   -2.39405390935454    2.44934083923833
H        10.56446669157286   -3.08440765233605    1.67556455328055
H         9.14718888068433   -2.31175580483055    2.37385868389043
H        10.48325236337869   -2.82199930100447    3.41376745813301
C        12.38939280766197   -1.18650385046612    2.19794954758699
H        12.74571656268899   -1.72219242922947    3.07459304557082
H        12.90351031680215   -0.23088748149626    2.13104802176715
H        12.66709827052985   -1.77159473520029    1.32097327413440
C        10.38867354078573   -0.51814282961798    0.85906696583923
H        10.89363990039623    0.39705705306800    0.56137136922642
H         9.31711038112370   -0.32768198058695    0.88693676188678
H        10.57758943749398   -1.27474230742537    0.09777591467395
C        11.08834261708525    0.01774741962910    5.16529202394088
C        10.91728210001218   -1.42681089258680    5.63346789071850
H        11.15855651856919   -1.50307007632154    6.69375276156323
H        11.57494511159382   -2.10569184724510    5.09533001471807
H         9.88349229936469   -1.74303555258002    5.50217852560651
C        12.56414159946678    0.41352699458796    5.19820665953994
H        12.94232777177095    0.27686520049700    6.21133443236737
H        12.69989090465823    1.45835906630462    4.93265052061349
H        13.16972293652493   -0.19479370509979    4.53507325594479
C        10.31656609190689    0.91537714670570    6.13578392135912
H         9.27151857503631    0.61515001735442    6.17400417257037
H        10.36163061650662    1.95931056407381    5.83278182223819
H        10.73835962077050    0.83148293756088    7.13672214781244
C         4.37767520874228    0.89980393284767    2.45592736814678
C         3.91327751996552    0.30708738024142    3.78680096908702
H         3.15066146289323   -0.45428116330177    3.62210415478301
H         3.48451486923561    1.07460302732540    4.42789276690595
H         4.74832261844426   -0.15057114576720    4.31499924126760
C         3.22875972396564    1.65013578711600    1.77728260024916
H         3.58734692223271    2.27660878587039    0.96381200580923
H         2.66333576139741    2.26201134425179    2.47067869491479
H         2.53966983247605    0.91909958226252    1.35357932308761
C         4.78334304356338   -0.23574145514830    1.50599804051387
H         4.03678133399810   -1.02917836454662    1.54453174159209
H         5.74472763153175   -0.66756814277622    1.76799805972259
H         4.83712183547498    0.11002549409367    0.47517322340497
C         5.52855379541555    3.48387817537125    3.80262198100123
C         5.55079755385067    3.11191578588450    5.28590221205424
H         6.48341980858367    2.60872576534127    5.53073406644367
H         4.72948809220747    2.44834577363531    5.54288056840428
H         5.46623134298655    4.00838197176138    5.89862642146390
C         4.19678431412010    4.15048152652855    3.46588382649124
H         3.35606431297963    3.58643299694609    3.85912011878966
H         4.07071784329032    4.28537371535305    2.39468380319224
H         4.17106064729444    5.13654313091586    3.92954294768495
C         6.64379250389825    4.49699684839506    3.52907824388600
H         6.56381561354806    5.32293314277099    4.23428791376926
H         6.57495594884177    4.90522810041409    2.52442724283396
H         7.62205411294037    4.03888841992368    3.64656039458422
O         7.25791469649945   -0.65894433558408    4.82641664673386
O         7.41558465042949   -1.16334971002011    2.70767000477222
C         7.13830140460608   -1.47764445543502    3.89182457037485
C         6.64159320681680   -2.88094487693628    4.18204192595960
H         6.48220535974465   -3.00329551083679    5.24994281053614
H         7.37055398332799   -3.60769020073002    3.82798847672034
H         5.70802442634764   -3.04834642459569    3.64770185540420

