62
CSD_code = SEPLOR | q = 0 | S = 0 | Stoichiometry = C19H30B10IrNS | MND = 7
Ir        5.10742927842843   10.36243192158256    8.86727673697911
S         6.52093449949094    8.58704486989463    8.68493401095230
N         9.21889815885684    8.55023898678192    8.83933936617406
C         8.24912667326640   10.71270786047707    9.01454216698457
C         6.82555475485676   11.47313207477931    9.04033064821740
B         7.71450221962377   11.32689635560495   10.52046809913962
H         7.31270360184391   10.54935827054827   11.30703073151549
B         9.41805178792323   11.43453427955474   10.03963156792321
H        10.18374390430299   10.72216303405688   10.57081815454224
B         9.49487868500177   11.63980291515896    8.28999734563612
H        10.31146474331484   11.06089652559225    7.67782369435669
B         7.84039409064913   11.66386992044198    7.65176399952874
H         7.51450096809142   11.09409143628928    6.67593519149550
B         6.99950782174232   13.03663975673539    8.34657022850012
H         6.08396995850581   13.48847787070736    7.76496297738524
B         6.92370047943968   12.83180986196366   10.08978969865471
H         5.95779117949091   13.14655688790975   10.68395492886301
B         8.58114260428073   12.83802978302872   10.74207509605147
H         8.82218669148942   13.23819135722422   11.82152745734204
B         9.68952049763449   13.04489466986105    9.35271513884948
H        10.72260949162866   13.59596258020782    9.46435947730863
B         8.70855132779353   13.17638076285756    7.86192960359168
H         9.03983567330894   13.81259544635777    6.92984088053321
B         8.13907232397533   13.91877623446144    9.38614649562991
H         8.06421210711980   15.08546707811697    9.52029789845486
C         8.17755105444554    9.25961364698317    8.83795637740826
C         9.30944844024055    7.19937210679715    8.60087211032681
C        10.02329629095266    6.40834525640162    9.50246021638270
H        10.41752343827448    6.86578394466301   10.39718653009168
C        10.19729325009357    5.06204190687747    9.25542266365832
H        10.74050067107125    4.45448954852128    9.96502897290826
C         9.68620016288915    4.48812424129011    8.10176434218053
H         9.82954563202266    3.43503715573254    7.90975794633005
C         8.99634359961422    5.27345318764661    7.19337676114648
H         8.60205243600965    4.83352053234140    6.28830480767054
C         8.80233162289644    6.61858569288022    7.43713806493242
H         8.27354198713379    7.23587651952432    6.72538742376194
C         3.38149994824901   11.84580349055727    8.81785345764303
C         3.42124443346154   11.03021824721939    7.64627161017445
C         3.13526016539505    9.65475569347946    8.03643119937306
C         3.05009835397020    9.61668012716399    9.42615798775463
C         3.26183385390928   10.96909115100993    9.92684964563114
C         3.31382655229490   13.33772996708086    8.87543301673294
H         2.31766591662747   13.64111557475180    9.19980852921681
H         3.50355677067034   13.77482098477510    7.90039132064281
H         4.03712227960449   13.74462721534260    9.57776204304501
C         3.46293350527620   11.52670188248930    6.23982294146202
H         2.45209036718366   11.76331751374597    5.90250038902763
H         3.87370265631447   10.77465470845310    5.57046673336646
H         4.07061188604480   12.42531717524938    6.16173545025934
C         2.89564951010982    8.52977925134401    7.08482209629358
H         3.50829210785822    8.63448829573907    6.19285122647058
H         3.12766709999871    7.57253373483925    7.54497442961413
H         1.84912677392091    8.51738634543073    6.77671659147525
C         2.70228066848625    8.44636891943737   10.28389750186498
H         3.29149846640357    8.44361483194782   11.19906099144339
H         2.88039333698427    7.51084801271782    9.75967638295711
H         1.64811664135073    8.48884608624278   10.56333536300801
C         3.10142130485615   11.38907514684975   11.34878012308716
H         3.64565592079783   12.30979013754055   11.54406003208283
H         3.45816144227893   10.62067737070212   12.03078886218753
H         2.04537793021894   11.56516365605918   11.56253426377588

