88
CSD_code = SEPLEG | q = 0 | S = 0 | Stoichiometry = C32H51IrO2P2 | MND = 6
Ir        3.54196439556023   15.01832506097795   12.06152638025377
H         2.02568603520644   15.06059071336514   12.08703882131519
P         3.22603650993372   17.14170507410548   13.09275479133371
P         3.07412700903095   13.43856603671832   10.34377875444384
C         3.84003318102265   16.25491642361701   10.37982153853362
H         4.42697005590241   17.12938724883378   10.64392238289858
H         4.37086722435409   15.72145580395859    9.59710168472819
C         2.46705258230692   16.56890739977599   10.03140111098009
C         1.81831016415643   17.62955587101068   10.68455716944801
C         0.50286828846217   17.90810436461598   10.35315691985928
H        -0.01139215932848   18.73863926528365   10.81701677711182
C        -0.17106689199895   17.11745849748448    9.43479707266493
H        -1.18886048042343   17.35786080601828    9.16594871066147
C         0.42625241087205   15.97814171094513    8.91729770882720
H        -0.14684897363433   15.32320324003028    8.27538138920732
C         1.74041359937286   15.67319508114475    9.23008557510110
C         2.55454678184822   18.33600149660519   11.78677320345734
H         1.91286441750317   19.07383674262227   12.27081226202180
H         3.42277292392324   18.85813564804341   11.37719068927374
C         2.39673183301602   14.37779945906922    8.84650497145687
H         3.25357654598467   14.57378625536592    8.19721271083701
H         1.70077421265125   13.73587758871903    8.30425887414614
C         4.74468101868546   18.08258663862219   13.76050803834663
C         5.19332380959060   17.38771053149847   15.04680142090635
H         5.23802069562951   16.30976288890713   14.89823325794497
H         4.52458374930050   17.59798090740043   15.87743309392955
H         6.18968339818097   17.72812717148566   15.32892989867562
C         4.56544839266291   19.58280161935074   13.99593612858292
H         3.92875556346032   19.79555129187865   14.84689462572167
H         4.15467831312325   20.08108097398878   13.12131413408687
H         5.54220664917783   20.02280268155602   14.19891248669197
C         5.86020000592049   17.89339315005403   12.72640157869182
H         6.80367444963846   18.25491945994967   13.13578185742857
H         5.66503413070938   18.45552067796017   11.81472280782605
H         5.98565384316909   16.84154607037074   12.47927813826067
C         1.83907561959749   17.16533066273039   14.39953760779624
C         2.05121006137493   15.94977924402511   15.30320649524795
H         1.19938895583791   15.82440060028736   15.97080866746397
H         2.94443614457717   16.05106160425973   15.91330523889280
H         2.15462950494250   15.04864308320739   14.70160945029125
C         1.74169635948190   18.43335203502088   15.24637247478964
H         0.82742782298793   18.38912343168163   15.83855708043423
H         1.69065967377371   19.32548440596279   14.62591764598836
H         2.57263254395531   18.52602596844763   15.93998925109976
C         0.50618728531460   16.99569300621774   13.66491419513169
H         0.57399665274539   16.21714531969810   12.90984012836577
H         0.19539718216712   17.91643064323734   13.18054011692946
H        -0.26826415697903   16.71338285090455   14.37642269009346
C         4.51548972208141   12.44694559900565    9.58534894621319
C         4.94235674414864   11.39410666336949   10.60898983811430
H         5.91078787546908   10.97543765701932   10.33510097546362
H         4.23224501434117   10.57338444837293   10.66858597263174
H         5.03957469014814   11.84481164173278   11.59569363117108
C         4.25411509283909   11.79893286201663    8.22533207473012
H         5.19839557670573   11.42151248661634    7.83194792294655
H         3.86054760958582   12.51475365811519    7.50789180032456
H         3.56952006789760   10.96112739955321    8.28998046672884
C         5.68081459042325   13.43007473949217    9.42776979585933
H         5.86729454419511   13.96276613736537   10.35764486874491
H         5.49645924035684   14.15028689193260    8.63246472282419
H         6.58784241386920   12.88384399742599    9.16826592193129
C         1.63508874867636   12.25736835467589   10.75144349371789
C         1.87158112788917   11.72998665717003   12.16746884464534
H         0.99602218716253   11.18333770289263   12.51608224327621
H         2.05676022422965   12.55750483174224   12.84989237370851
H         2.72551110018610   11.05985879240820   12.21150834809167
C         1.43778235980179   11.08953763268848    9.78615946761724
H         2.23330362052110   10.35417372306538    9.86682100341553
H         1.36720850192402   11.43044026340494    8.75547724991634
H         0.50308573954569   10.58560163164688   10.03291769015617
C         0.34416954252392   13.08108021105340   10.75109043460452
H        -0.44474753131897   12.52172920955031   11.25157052296412
H         0.00917279846693   13.30106301596780    9.74201601227098
H         0.48173417454510   14.02083747480377   11.27903573086892
O         4.13294001752255   13.70502132445870   13.81192044405474
O         5.65608794283663   14.60390861240550   12.52026633947483
C         5.33919244995642   13.89462987683925   13.51101066287989
C         6.41050483922521   13.27681668275881   14.33862597844186
C         6.07335403597998   12.49511503965132   15.43800187748530
H         5.02872352878076   12.34791736538456   15.66992510925126
C         7.06859170048141   11.92527277762273   16.20878684799354
H         6.80898947166665   11.31748850837778   17.06372458981002
C         8.40053311171329   12.13325760143448   15.88607710251932
H         9.17747983597662   11.68703668645278   16.49037159961009
C         8.73887428446151   12.91213127960456   14.79071925132868
H         9.77837975370842   13.07218445653448   14.54235019726758
C         7.74714548714428   13.48408293185219   14.01683256209640
H         7.98939042953257   14.09484646653551   13.15927907661709

