81
CSD_code = SEPLIK | q = 0 | S = 0 | Stoichiometry = C27H49IrO2P2 | MND = 6
Ir        3.24037054735871    3.96803403270630    2.40050590271121
H         2.21169491373692    3.87043685878157    1.29112190251329
P         4.12892719052159    5.58603749809479    0.89174430719291
P         2.36516658943794    1.79871473223404    2.86012538940521
C         4.11307257280004    2.44536586251035    0.25392563394127
C         4.18089249773310    3.33781856638211   -0.82828965702014
C         3.55685195250368    2.99168486224366   -2.01514274846321
H         3.62074489286561    3.64493885567522   -2.87459365014998
C         2.83403816498553    1.81217123189181   -2.10898183038206
H         2.37129838321740    1.54039599772822   -3.04599541737060
C         2.63887973141684    1.01792527706730   -0.98935542934515
H         1.99592257269781    0.15117771472963   -1.05881617304624
C         3.25051710168295    1.33793854394783    0.21121106951588
C         4.83776630058501    4.66957416703718   -0.60463862451986
H         4.74577085192343    5.30119966724598   -1.48956131945539
H         5.90144248232878    4.52779367661934   -0.39823724134128
C         2.95486407973680    0.62388784910276    1.49875587314623
H         3.86445662495973    0.15160209221941    1.87780839424890
H         2.20641115278947   -0.15548632644992    1.34746886057888
C         4.75105426871040    2.80034110582858    1.50799234380043
H         5.65968752436125    3.38070483179721    1.37883862037910
H         4.98976963049123    1.94091318410329    2.12730409094633
C         5.60641152138091    6.65833135558574    1.44276855628136
C         5.07882015109145    7.70100858243410    2.42893668747485
H         5.90768046419685    8.16256205864045    2.96583741629373
H         4.42444528700343    7.22820402151593    3.15967607069302
H         4.52780439007318    8.49258546205153    1.92781298221379
C         6.41300899534691    7.33069934106643    0.33146089467403
H         5.86369767337582    8.12795475608983   -0.15575651351110
H         6.73048103389945    6.61590442705744   -0.42365281861746
H         7.31022014822544    7.76954305674727    0.76893719439599
C         6.54720807491806    5.72922814901966    2.21822244254362
H         7.04866299672650    5.02216651673954    1.55967288246213
H         6.00611476808291    5.18078691610115    2.98633774527430
H         7.32077627714417    6.31887538470446    2.71055098095046
C         2.80646189918884    6.69559011214581    0.08348400937094
C         1.88866242958128    7.19103158779810    1.20218780326926
H         2.39158340029964    7.90202898471048    1.85149766176333
H         1.55448589369199    6.35414966335014    1.81292215465907
H         1.01267398861477    7.68228926050438    0.78012458566018
C         3.33223612285021    7.88202879463292   -0.72311213691419
H         4.06261367182820    7.56827680257064   -1.46582512851711
H         3.77239596812212    8.64538213126917   -0.08780476290000
H         2.49789179138237    8.34194475339794   -1.25306036268158
C         1.98372019551561    5.81993730615713   -0.86575313466586
H         1.05972846166570    6.33383969752428   -1.12632688352281
H         1.72579127615805    4.87390873246526   -0.39753192089877
H         2.52109188559422    5.61119938200431   -1.78579311676434
C         2.91843742757259    0.89007091309397    4.44263866740490
C         2.21082237432377    1.55106009644706    5.62601768840955
H         2.68454515633157    1.25196394036644    6.56113864343490
H         1.16237927500568    1.26992932161142    5.68166388766677
H         2.27815560469032    2.63482187900297    5.54434383338290
C         2.70789460750060   -0.62401839278381    4.46888857137318
H         3.14029179110891   -1.10498965976215    3.59502619592675
H         1.66071354875570   -0.89644363020402    4.53136351897633
H         3.20617406956072   -1.02974545861519    5.34983680432627
C         4.41882630588696    1.16466473600506    4.59435673062091
H         4.62836181240826    2.22990506736542    4.52394921998766
H         5.00348611961698    0.63462251777335    3.84449446200517
H         4.75725149153088    0.82118584409662    5.57208657179544
C         0.47045808819535    1.67886787104182    2.68914055701943
C        -0.12659533639085    2.86527728154888    3.44759631701049
H         0.35995736504333    3.79006961462191    3.14251503603477
H        -0.00543293788152    2.75955287490124    4.52191854774030
H        -1.19196468558301    2.94922776418771    3.23603801835038
C        -0.16338241788988    0.37673601882647    3.17637814865692
H        -1.21468250424595    0.37017123493111    2.88788945135067
H        -0.12391986633538    0.28238000916296    4.25786693027878
H         0.30895166939636   -0.49199122481857    2.72279440954786
C         0.12854555321380    1.83153063822338    1.20434781069375
H        -0.93199060086893    2.05334418647964    1.09575795464980
H         0.33853478405320    0.92244999418132    0.64910195575560
H         0.69317962509070    2.64467353011566    0.75634177483575
O         2.26983143872034    5.26025810052690    4.01282469051979
O         4.28824896274640    4.46953228370966    4.29840935806568
C         3.30809775976866    5.14012270200832    4.70440527284465
C         3.38515301725690    5.81294763726353    6.06082709000776
H         3.44740236535911    5.05147941588909    6.83639063038824
H         2.50290915592558    6.42681672984849    6.21937630050569
H         4.28359018733207    6.42439864516433    6.11427136414984

