30
CSD_code = SEPNAC | q = 0 | S = 0 | Stoichiometry = C12H12NO4Re | MND = 6
Re        2.58243244443593    1.70957406520547    0.80298702060432
O         3.51596447675938    0.59582878116818    2.19722094463436
O         2.04736410163755   -0.19245862534609    0.41951896020810
O         3.12870635347843    3.07398704741502    1.61092801903875
O         1.52881482958225    2.19176772451607   -0.40618931685058
N         0.61101553540256    1.65758028364630    2.50577821331015
C         4.29688576873811    1.68864484772964   -0.54857310018564
C         3.32209645704690   -0.67773238171327    2.24035586971753
C         2.45095206151562   -1.14390577073384    1.19101674864643
C         3.84295153517621   -1.58843941119961    3.17100042423443
C         2.65469455093965   -3.36830921627783    2.03715172554063
C         3.50299224294839   -2.91572832590842    3.05571813906185
C         2.12431997248370   -2.50502546735090    1.10751253739059
C        -0.51444429713328    1.00352661057144    2.26651704370214
C         0.74574661528723    2.32829417610155    3.63962313576478
C        -1.56825858777310    0.98512722279236    3.16630035081961
C        -0.25226007922781    2.36701247210296    4.60019248525022
C        -1.43212265577547    1.68041293872828    4.35785616133564
H         5.20282261618778    1.52161748468516    0.02752115393277
H         4.37692324903596    2.63516610706572   -1.07574627813497
H         4.16923223488795    0.88665188824358   -1.27056625015783
H         1.47346927557524   -2.84847593200630    0.31827438648163
H         2.41504219030348   -4.41964733054186    1.98351802478311
H         3.89741282159561   -3.62864394409023    3.76414530942239
H         4.49741269935675   -1.23395951116030    3.95219205441670
H        -0.56711500271603    0.48463623228605    1.31886361255094
H         1.68596899492507    2.84897860689756    3.76198229105873
H        -2.47189206748760    0.44292234602037    2.93628575053651
H        -0.10844226926041    2.92350837123957    5.51272639717719
H        -2.23278606792603    1.68948870991340    5.08298818570961

