67
CSD_code = SEPXET | q = 0 | S = 0 | Stoichiometry = C28H36HfN2 | MND = 5
Hf       -0.25887350911186   11.19655792041413    6.18047242471134
N         0.89043698504715   12.40142850545010    7.41760842768477
N        -0.59828653451556   10.50773638008348    8.39282112471677
C         0.52572066485454   12.56095149266936    8.81647185530628
C        -0.03787533930018   11.24105363073054    9.34779530519211
C        -0.03046292878175   10.81247867260158   10.66887600568093
H         0.40793512076018   11.41193872704672   11.44949129035265
C        -0.57992449022098    9.56908504796756   10.95422282534178
H        -0.56873515374803    9.19698416063386   11.96878669653805
C        -1.12262406053684    8.79919132196710    9.94225765034821
H        -1.51986260101749    7.82101181665679   10.15926099538704
C        -1.12745127116630    9.30294772188608    8.63783599108237
C        -1.62912273287923    8.60901033592105    7.44738054125081
C        -2.43414092901666    7.47259422653540    7.55701111835356
H        -2.73368455591086    7.09946353949094    8.52672863985680
C        -2.88038292284687    6.82879738023091    6.42059599386549
H        -3.50468467037786    5.95049141818427    6.50479044692323
C        -2.52966793547846    7.32159031330206    5.17325012553199
H        -2.87859719143369    6.81849675031634    4.28135346640154
C        -1.74303853193296    8.45943326239475    5.07207151712334
H        -1.49619174698773    8.82622780457693    4.07973234474000
C        -1.24948538119611    9.14429046915479    6.18858898705136
C         0.86039118318608   11.04767924436902    4.24523193111530
H         1.87668936370054   11.45722583425226    4.28946601277588
H         0.34738829718281   11.57826925514397    3.43305906682995
H         0.96502078626502   10.00946161189795    3.90309744347516
C        -2.10419493976954   12.37832332361424    5.67793077904378
H        -2.91057174407613   12.16547016491881    6.39338935068377
H        -2.47639215231612   12.06246803997925    4.69472860615304
H        -1.99228573469132   13.46732350908847    5.63348231598535
C         2.21936314405790   12.51135477437190    6.99857730393568
C         3.20717077686695   11.54370223197088    7.29094228537074
C         4.49299962731604   11.71126824537798    6.80064182501851
H         5.24898487343697   10.97010500787752    7.01067189063881
C         4.83160615880464   12.81146291822324    6.03498657799252
H         5.84248569379007   12.92888223618455    5.67292520065913
C         3.86542413775535   13.74948710391548    5.72377750258106
H         4.13271569075007   14.60206346790972    5.11662555205857
C         2.56705911351691   13.61301373035663    6.18446709213937
C         2.83928173782348   10.28198337332697    8.04527354609367
H         1.99729725627871   10.49967518295372    8.70574258451028
C         3.96877280024659    9.73547028564798    8.92129827114207
H         4.75729897992244    9.29090032706974    8.31975529751170
H         3.57999895639327    8.96354561626041    9.58340187510553
H         4.40249630813976   10.52541833956132    9.53095891499808
C         2.37932367096703    9.21379010501631    7.04467882768425
H         1.50281808470242    9.57270137085676    6.48056769776704
H         2.11178613282503    8.29542973107016    7.56716044488297
H         3.18112908433190    8.99076443068848    6.34247960219050
C         1.51906317240148   14.64653527471831    5.83711723466146
H         0.55422478448004   14.26077340742276    6.19326116452717
C         1.40678332827722   14.86225720569123    4.32757524923458
H         2.32371225316355   15.27902866118743    3.91749092050520
H         0.59428829199346   15.55291341728312    4.11059035809021
H         1.19915398209512   13.91836822801408    3.83066864988220
C         1.81889818857599   15.97077665737378    6.54512918140893
H         1.87170340594766   15.82755762523751    7.62245562674504
H         1.03961567798955   16.69998998991395    6.33185084750998
H         2.77095835288018   16.37824045969373    6.21154368824681
C         1.66193875086814   13.10752863134641    9.69126749195399
H         2.44242247356192   12.36832683727281    9.84797449199190
H         1.27959355858703   13.42747811852644   10.65769378864764
H         2.10716391114475   13.96657222292104    9.19523393808199
C        -0.66113367388847   13.55525444095009    8.88571588860198
H        -0.32705591879323   14.53939713473060    8.56769514339766
H        -1.04989644572880   13.62380372234673    9.90046010305458
H        -1.45269166576870   13.21479760387765    8.21795466148860

