79
CSD_code = SEPXAP | q = 0 | S = 0 | Stoichiometry = C32H44HfN2 | MND = 5
Hf        1.49788224250897    9.60808093638510    1.59458143951466
N         0.26418978873776    8.71139227969212    3.03584036972264
N         1.31915954273723    7.42095445999503    1.02013671639624
C        -0.12698731050615    7.32213293043640    2.90516599070587
H        -1.22684042791892    7.20242356022655    2.93233936956796
H         0.24517418292741    6.70452024341540    3.74507986432543
C         0.37802454881722    6.71317908820116    1.62662432826538
C        -0.04853014365655    5.49434408591465    1.11104258479590
H        -0.81680583223128    4.92232506125162    1.60720516446244
C         0.54786061934123    5.04099614911875   -0.05624357071567
H         0.23889286026806    4.10016531518223   -0.48843130009576
C         1.54710173624586    5.78314743388169   -0.66522982948049
H         2.01303986967291    5.41741496303676   -1.56541404219451
C         1.93128418893714    6.99968799166020   -0.09572345099971
C         2.99468811681215    7.89427357157869   -0.56485308940363
C         3.77779114990232    7.56795599076378   -1.67547918570980
H         3.59948132205538    6.65748118418318   -2.23038264075916
C         4.79309334042724    8.41049306844042   -2.08002873707777
H         5.39970644254234    8.15608263464511   -2.93774866196172
C         5.02592193081287    9.58460559913944   -1.38099838243188
H         5.82128861173832   10.24699081906894   -1.69593019684453
C         4.23800256177770    9.90899018072585   -0.28685321240920
H         4.44463071680644   10.84067575769245    0.23118236856370
C         3.20720347807749    9.08602824016422    0.18110457742819
C         0.18607615221774   10.29444531643789   -0.10624670611081
H         0.52364269978940    9.80696417465826   -1.03035785067072
H         0.26306202439778   11.37511751064969   -0.28291585296888
H        -0.88117130295780   10.06689906016365   -0.00791025879786
C         2.40938414158648   11.38276625821453    2.61684094002139
H         2.04535608351726   11.51594252262744    3.64392684465454
H         2.19459866681228   12.32535610510456    2.09668182803531
H         3.50418833086560   11.32722162271480    2.68780039274059
C         0.16648828788688    9.16408256175867    4.36774476547599
C        -0.92812249636560    9.98069248981690    4.76163399958543
C        -1.12172083676154   10.25408552553636    6.10736403869310
H        -1.95575037463823   10.86011773792839    6.40201943986670
C        -0.30123002698862    9.74774117067743    7.10100895374735
C         0.80924400599837    9.03410890084751    6.69074126092400
H         1.48436530960899    8.67384990522040    7.44980625865086
C         1.09660072923460    8.76120139144049    5.35824643846303
C        -1.88063597251211   10.63367802255386    3.75137939545574
C        -2.49928539502157    9.62023170399125    2.78028026721435
H        -1.74328804365802    9.22480385918479    2.10864933017492
H        -3.26831629766709   10.10612924836157    2.18202303087366
H        -2.96346019916282    8.80454170362538    3.33134686757327
C        -1.08643638871760   11.68142451343112    2.95952582447448
H        -0.67044909701715   12.42397723596380    3.63790554578728
H        -1.74049842132004   12.18982160935755    2.25322670493595
H        -0.26880987312020   11.20498618704583    2.40865593703014
C        -3.05705628976412   11.36682396260913    4.41675731239505
H        -3.65722463001268   10.69020209859059    5.02093567559705
H        -3.69919306558888   11.77718308304841    3.63944172991249
H        -2.72089933944187   12.19881224019116    5.03031660132433
C        -0.55415706009694    9.96619274557374    8.58534788778581
C        -1.82178743827039   10.78113863424337    8.85693883837259
H        -1.74520362067789   11.77793231577214    8.42900627420397
H        -1.96147505077416   10.88768669020534    9.93118043654781
H        -2.70034393412180   10.28457191851701    8.45175568966511
C         0.63465122408282   10.71960514941297    9.19861904890682
H         1.55387450800309   10.14657677929774    9.11488435179663
H         0.45272061863395   10.91582367580298   10.25351771178749
H         0.77898916495371   11.67011343272044    8.68942566753342
C        -0.71195246003452    8.60089107589432    9.26957805184616
H        -1.54807828801152    8.05818371306243    8.83346214150362
H        -0.90078539464487    8.73102795729601   10.33343854542455
H         0.18251423537021    7.99482221436708    9.15477384447915
C         2.46663821960341    8.09082821258474    5.14848320564054
C         3.53201358309310    9.00388892354967    5.78741574802379
H         3.51638851907002    9.97876062163138    5.30537084751953
H         4.52219538933301    8.57040953703621    5.65913277679670
H         3.37212823556038    9.15190663122807    6.85014584252337
C         2.48288829034605    6.71499501845921    5.83690337530337
H         2.27876225085438    6.79161780932050    6.90059956130101
H         3.45710249912374    6.24548508635783    5.71321959743760
H         1.73076658765290    6.06036257194677    5.39951614719561
C         2.93991932747501    7.87608552690845    3.70376208140701
H         2.37197844333988    7.09894252783537    3.20201840841523
H         3.97803069586010    7.53970788881369    3.73343391052249
H         2.89890953625416    8.80939407559631    3.12575481932741

