81
CSD_code = SEPZAO | q = 0 | S = 0 | Stoichiometry = C40H37IP2Pt | MND = 4
Pt       -0.66513619198530    1.65570745182026    3.61832116709161
I        -1.47261883077203    3.91380585012386    4.82939408671036
P        -2.81312317775934    1.02717931639971    3.21005372601062
P         1.51080447862684    2.10480990496480    4.11381383813328
C        -0.03939185514316    0.10668154225875    2.46815947167501
C         0.21683707265164   -1.11626774817300    2.89915577694820
C         0.07697402341315   -1.50443061920583    4.34345973633385
C         0.66239734330473   -2.23373112156759    1.99589275568209
C        -3.68985468899999    1.90341081158166    1.88645589126055
C        -3.10986670820899    3.04419623102528    1.34634303601412
C        -3.75050821614502    3.74106423899187    0.33800591872850
C        -4.97278127757798    3.29630584692760   -0.13649489500489
C        -5.54957134909280    2.14990145446524    0.38951814080222
C        -4.91186730630763    1.44968230484413    1.39585637054381
C        -3.83460365702343    1.21850917017299    4.70002383395535
C        -5.12715881839835    1.72085148838197    4.71810140627908
C        -5.79574699353958    1.84391130183658    5.92459906075931
C        -5.18195194641377    1.47178725167182    7.10800941846891
C        -3.88528720357419    0.98141040013595    7.09502009275004
C        -3.21412851087998    0.86108099609472    5.89541039003577
C        -3.11217324401655   -0.70917251463156    2.74436043786854
C        -2.82025658643826   -1.09108808760843    1.43736713297205
C        -2.95374801430713   -2.40941942740885    1.04937203649617
C        -3.37587114578331   -3.36171171359179    1.96409359645049
C        -3.66551912705863   -2.98831921832402    3.26503112043327
C        -3.53074558547020   -1.66786451280945    3.65815988681564
C         2.74774894687890    0.76849357042032    4.04217492155414
C         3.13201615937008    0.31338059212620    2.78321820685790
C         4.00826701373003   -0.74682768303637    2.66200563992715
C         4.50641560432470   -1.36770202726534    3.79690103873833
C         4.12956893213265   -0.91837111748460    5.05078278599184
C         3.25061244016668    0.14368241925870    5.17642936632317
C         2.21727325457986    3.29772510818838    2.94761654228836
C         1.35871781700551    3.88646345331485    2.02741244685247
C         1.84001953712196    4.80396621594194    1.11189044525105
C         3.18574900386953    5.13077088570386    1.11131673005253
C         4.05092214710646    4.53029143665077    2.01385179972499
C         3.57349755213504    3.61158574684438    2.92952392035117
C         1.76422391087690    2.79748607350998    5.77460655602485
C         2.48977290041744    3.94773732674816    6.04786899358176
C         2.58066484371000    4.40660664754169    7.35111888085078
C         1.94930106293398    3.72849350704920    8.37911857593325
C         1.20896898259845    2.58837802573420    8.10773744359985
C         1.11254040871242    2.12960964470697    6.80979924181832
H         0.07430784924068    0.32645994789992    1.40254482875139
H         1.01276912791389   -1.91531161077472    4.72399931878557
H        -0.18933036035395   -0.62790765644515    4.94078847020832
H        -0.70163407350177   -2.25902067607813    4.46304563182366
H        -0.05517903333531   -3.05388221410809    2.03400733600181
H         0.74939157189757   -1.89636295792072    0.96617696488880
H         1.63055456636498   -2.61544203430420    2.32147781802848
H        -2.15347047255463    3.38269300332161    1.72616480418849
H        -3.29864201761029    4.63010794171694   -0.07618765952938
H        -5.47763655483812    3.83948301147925   -0.92177478707617
H        -6.49988998139334    1.80117859205680    0.01173740532539
H        -5.35060190373313    0.54560120443023    1.79764255888256
H        -5.60383828899291    2.03387372313281    3.80051647348959
H        -6.79939565518659    2.24274290257120    5.93965756495300
H        -5.70812716990880    1.57777468469660    8.04507953874116
H        -3.39838858075535    0.70856648805111    8.01986453301498
H        -2.18700193863502    0.50718298575882    5.86755547525599
H        -2.49165408484973   -0.34389641589850    0.72739374692926
H        -2.72586701168824   -2.69851929672445    0.03373292061963
H        -3.47760481630275   -4.39399794716156    1.66243791547334
H        -3.99601517142752   -3.72873831203917    3.97935072422324
H        -3.75661159751883   -1.38271398282835    4.67639434177444
H         2.96399142354172    4.49689076720277    5.24752669977763
H         3.13951391825759    5.30667254928234    7.56134756863199
H         2.01890443369744    4.09700949441554    9.39176017030505
H         0.69778857595518    2.06993022430159    8.90573165138044
H         0.50983069690447    1.25721660926853    6.57731604185560
H         0.30757996563229    3.60914018204058    2.03683603157089
H         1.16981159956582    5.26387916915494    0.40077570412868
H         3.56586355210351    5.85030788963641    0.40112476926519
H         5.10217246385123    4.77954354544106    2.00124126904748
H         4.24709153300459    3.12662150963703    3.62402392351101
H         2.74004336801694    0.79992244119145    1.90053726178224
H         4.30212266290169   -1.09363257324192    1.68195968743508
H         5.18777853661400   -2.20066882687493    3.70301035217717
H         4.51914274770871   -1.39847069436860    5.93700796593078
H         2.96064711865026    0.48830590775414    6.15933800851006

