101
CSD_code = SEQBIB | q = 0 | S = 0 | Stoichiometry = C36H46F6FeN4O6S2 | MND = 6
Fe       11.79124229934437    2.06838837381088   -0.79827823759622
S        13.28805175806134    2.72897960227454    1.67520090236271
O        13.40266227143180    2.17759052403172    0.32530250505937
N        12.11134911300058    0.27932085036501   -1.14079112895711
C        13.18716250949406   -0.38663023380270   -0.74046446515925
H        14.01601112580065    0.22880770530672   -0.44385583901755
F        15.51102057290461    2.40629699519883    3.09449330107860
S        11.08562087183270    0.42915134886628    1.56786994690689
N        10.30300732413069    1.84754552545350   -2.03912419208608
C        13.21246281504977   -1.76175694134154   -0.64307288230080
F        14.00024230838971    1.03561386607033    3.72163297283917
O        12.01036710340550    2.68756253164642    2.31838453538926
N        12.83563396002750    2.83395713354222   -2.25693370913707
O        13.93028868280548    4.01969889600441    1.73032921865767
C        14.37742834342329   -2.55094328383123   -0.15351208062646
H        15.24225018358963   -1.93287860454248    0.07430611654872
F        15.07163521851376    0.71841745351133    1.86861485738199
N        11.49527158011963    3.83213357381577   -0.32186265312233
O        10.59735428363232    1.44412832387004    0.63486656289900
F         9.42567053368222    0.05010370744249    3.60826258681709
C        13.86874609531745   -3.54438238806126    0.92964132178916
C        13.41717645861068   -4.42675178065381   -0.26439623499178
H        13.45598038626009   -5.50919823469466   -0.13337605004059
F         9.57475805994464    2.10087826576954    3.04532319321504
O        12.49871599252617    0.30332106014959    1.75561739852641
C        12.06325534967784   -3.97340167988100   -0.80361501956037
H        11.85011528154481   -4.47599384747936   -1.75264425738081
H        11.26411145997365   -4.23486647243329   -0.10688619448809
O        10.41359810679040   -0.82335053093431    1.32091467313148
F        11.13832186517661    1.16949988454646    4.21568451464276
C        12.06731269169182   -2.48438493709263   -1.00015182648557
C        10.97115639333167   -1.78127140998770   -1.47544835351067
H        10.06349635999996   -2.29412750209414   -1.75431299358002
C        11.02763513987562   -0.39895207688382   -1.50914864759459
C        14.51823527273685   -3.75816317620416   -1.10303299967210
H        14.28611804237117   -3.57490743823328   -2.15171948475337
H        15.48143970216970   -4.25438687296333   -1.03073481728949
C         9.85225471251378    0.46785529159713   -1.84041045614885
H         9.29153923280436    0.08541542607733   -2.70099928169776
H         9.21693947282839    0.45570286803762   -0.95437423112958
C         9.19617560264559    2.78880742201743   -1.93082253480411
H         9.61011585867486    3.77899761297837   -1.75662742820802
H         8.57093105186284    2.53310703307505   -1.08198279050264
C         8.48391583301698    2.73299742000751   -3.28566098228821
H         7.96978716196936    3.66446722288254   -3.51047080577595
H         7.74628056645333    1.93199204577993   -3.29900658015116
C         9.62269098751706    2.44481073801989   -4.27666553641265
H         9.86115592647174    3.32662350779131   -4.86919558732551
H         9.35323397421754    1.64746826692546   -4.96720075316337
C        10.82893511432347    2.04592849634118   -3.39592732703446
H        11.29216265078177    1.11614782596124   -3.72848031871896
C        11.90307081594536    3.13823194396499   -3.34988465044421
H        11.41976254648375    4.09288061671826   -3.13848040789771
C        12.74873335512767    3.18533135229139   -4.64296107478609
H        12.84616782237737    4.20295062944879   -5.01735282590174
H        12.27931906192781    2.59067608718157   -5.42496833864520
C        14.11518893811984    2.60390266235582   -4.24682997222706
H        14.46693152845786    1.86054556188191   -4.95832923386016
H        14.86716613343500    3.38906216100620   -4.18420178101850
C        13.85667523511269    1.99210792755129   -2.86642817350028
H        13.45325571192576    0.98699871800118   -2.96261256691486
H        14.73049945844878    1.94216230953759   -2.22546132249124
C        13.41558276768813    4.05723965528076   -1.69745177402569
H        13.71041130741580    4.77135106697602   -2.47488350132041
H        14.29058287087246    3.76730710952818   -1.11509753910961
C        12.45758090737047    4.66138415354912   -0.71760459220560
C        12.61386886282655    5.92648217024400   -0.17896793473385
H        13.42567803561110    6.55841715666455   -0.50490817446574
C        11.76397880511916    6.32992596142194    0.83922523581054
C        11.92750004025725    7.62800455001709    1.57673611806284
H        11.87858481238266    8.46670029534125    0.87470946230744
H        12.91514415725927    7.64654776646855    2.04221123135416
C        10.83279695675186    7.76410612157634    2.63146784323367
H        10.90735301136779    8.71076364344835    3.16872471082539
C         9.48812675134352    7.40456092175887    1.97932786843541
H         9.38023997461175    7.64843817886414    0.92286894920876
H         8.62681370114274    7.78034901017599    2.52351866438293
C         9.82861834792637    5.93654969034736    2.30794204286408
H         9.03384994371730    5.23043521917777    2.53508564436180
C        10.73598328610520    5.46125188841282    1.22601235331086
C        10.63948336064143    4.23108015344905    0.61062023482218
H         9.90179742926350    3.50190700277955    0.88982136026467
C        10.70504570880579    6.46918375787333    3.47708032090093
C        11.95472607538193    5.68452802854240    3.84463562961494
H        12.58247348549262    5.43354447195612    2.99572992504255
H        11.66306594949804    4.73896207509623    4.29608615706776
H        12.54653322493252    6.24749378143220    4.56503247746968
C        14.49456984711170    1.63880463838406    2.64816945680295
C        10.30351820826734    0.99052706357560    3.20010397170356
C        15.01890339711545   -4.17745136669128    1.70803751941623
H        14.64490589544166   -4.99898537276008    2.31627436790229
H        15.46147405152190   -3.43714839218279    2.37008611023530
H        15.79878633623021   -4.56455063099914    1.05831448544322
C         9.88790028920836    6.69178879947898    4.74687004271612
H         8.97675761392115    7.25414718769900    4.56306044578302
H        10.48221787603130    7.23767463026401    5.47730830057741
H         9.61596642593435    5.73135220058798    5.17796962383440
C        12.83595772398106   -3.04308859494280    1.92697927111088
H        12.45958702935958   -3.87564682193335    2.51972422723922
H        11.99555741582182   -2.53027123665439    1.47041304395670
H        13.30388384620538   -2.32318529224961    2.59461884095952

