37
CSD_code = SEQCIB | q = 0 | S = 0 | Stoichiometry = C12H14N2NiO6S2 | MND = 6
Ni       11.38682179182812    1.49160009626405   21.14046072974547
S         9.33739500454849    0.97789516942209   25.03554548266535
S        15.19775718455902    3.08952674767353   23.50902197959153
O        12.18605103462564    1.74774347335739   19.48630269602750
O        12.20664729973899    2.07294546387141   17.30991066925843
O         9.48615562973096    2.04011854754940   19.67207533835892
O        11.14280069008502    3.33793066955730   21.42071322936606
O        10.01270516914450    5.22277609111263   21.25848618322054
O        11.76418595557336   -0.54915858510531   20.83273361198492
H        11.86295078676688   -0.57538173750573   19.87136926666815
H        12.65574063151566   -0.63060667221723   21.19436337317745
N        10.74418546411177    1.20612917469585   22.93487931677462
N        13.36110012048973    1.72689112304047   22.38501079604700
C        11.61556796998731    1.97697051725658   18.36714160101291
C        10.06435356073908    2.03661953373634   18.37205851779074
H         9.74620305299033    2.90425633606616   17.78796022322236
H         9.70459269184461    1.12887521969323   17.87131727849161
C         9.08891369780975    3.31829729491317   20.15085605656665
H         8.22337954301446    3.15189148753069   20.80250769109886
H         8.78781154555911    3.97661220807889   19.33099353994733
C        10.17107540180154    4.04619770783399   21.00092815356308
C         8.48386216538106    0.39184132740428   22.41389552246167
H         8.79387760596192    0.55925491241516   21.38057920316143
H         7.55351772343323    0.92142262123148   22.61025542873371
H         8.30500275216144   -0.67292852337735   22.56336013942103
C         9.55480114617037    0.86268589871028   23.32011197193880
C        10.95968611729635    1.51966389263271   25.19237291510145
H        11.36868770295103    1.75526118085397   26.15270092494851
C        11.56154858662467    1.58329965358917   23.97250976852122
C        12.90936290329388    2.00762563176595   23.64711749096354
C        13.78484047532194    2.72568460091320   24.40923797489122
H        13.66516838687257    3.08144935573397   25.41165908982612
C        14.52235350966945    2.23019219285667   22.14412285856903
C        15.22825800279887    2.10904988975124   20.85154706592230
H        14.48197091571544    2.05310810515713   20.05861002125735
H        15.83822802287671    1.20530592750816   20.82793737294962
H        15.87673975700851    2.96475346602740   20.68604651675707

