79
CSD_code = SEQKOQ | q = 0 | S = 0 | Stoichiometry = C36H38AuNO3 | MND = 4
Au       -0.03146664397479    5.83114311677738   11.99603625859363
O         5.82498097640945    7.31216063005297    7.20207567629763
O         5.33294806239249    9.84559971602568    6.44523154571098
O         2.97358945957672   11.18035438792539    7.57885872782594
N        -1.24879874761805    4.92282839783666   13.23993004503970
C         1.13713867428939    6.70758115382557   10.79338977647983
C         1.87200406810335    7.28128239738729   10.02675326786088
C         2.74261350230503    7.93622209880108    9.12077709646951
C         2.50405422062430    9.24427612914497    8.73752197223789
H         1.65667560316501    9.78670090048221    9.12526819228831
C         3.35043587176490    9.89886049557876    7.84160597145953
C         4.45613913056381    9.21968956199811    7.31908812276753
C         4.70504785737343    7.89350603158260    7.73252662351756
C         3.85473923030568    7.25852064993250    8.61780971296861
H         4.02907564315934    6.24379399358704    8.93681431107863
C         3.75632028067626   12.03056275952854    6.77187482588838
H         3.29043541745138   13.01263151485315    6.86184547745522
H         3.74150631278935   11.72218017493193    5.72302498383365
H         4.78992922756651   12.07944492440009    7.11841628892480
C         5.38452559995581    9.30243218829525    5.14229679868566
H         6.05734540489683    9.94827799437369    4.57984730209148
H         4.39343479096264    9.30879565330079    4.67212671022754
H         5.77403055343445    8.28240428607047    5.14359816474621
C         6.16775126523110    6.01576647936498    7.62081032164144
H         7.09850611976632    5.77876520073036    7.10684161693661
H         5.40265675151428    5.28442945175967    7.33901385170712
H         6.33081344478288    5.97170957070168    8.70223267838142
C        -1.77173432425436    6.20643894677404   11.03396957409263
C        -2.02391958795813    6.89629076052281    9.86485980580796
H        -1.17739414986995    7.31854701120484    9.34349435617391
C        -3.31003474887278    7.06316090990653    9.34714149862885
C        -4.37085895280523    6.50302370387098   10.05085355433827
H        -5.38317590731039    6.60289581641763    9.69358691099578
C        -4.15910605132643    5.80576110643398   11.22508994772675
H        -5.00550213211914    5.38377411100341   11.74871824008170
C        -2.87158017955042    5.65010844007478   11.72844256111506
C        -2.55853529277970    4.93710898804500   12.95762815053073
C        -3.43950199490894    4.29969153708946   13.82973610209743
H        -4.49853185268815    4.29325682055116   13.63116018284080
C        -2.92760564380510    3.67576198766470   14.95611635562478
H        -3.59810908944800    3.17810492399277   15.64184419280770
C        -1.56595235190515    3.68257417384834   15.21384786193480
H        -1.17002858221004    3.19722724509319   16.09060941619949
C        -0.71746927040307    4.33015527408529   14.31766074934870
C         0.73013590180064    4.46290787141963   14.38869207182930
C         1.51096322020920    3.93228701318926   15.41035580276084
H         1.05228841229753    3.37973129595654   16.21837854788483
C         2.88207469606756    4.10548491959395   15.40420447455848
H         3.45289369486943    3.67831739057395   16.21295288218820
C         3.51156331360365    4.81259537023125   14.38548830869551
C         2.71303910663648    5.34042723787068   13.36889877392059
H         3.16892312286536    5.89980892590874   12.56504301338969
C         1.34134033164373    5.18495714851427   13.33681422198929
C        -3.49105714159546    7.84468576215770    8.05755417723562
C        -2.69023607268343    7.15901619893061    6.94155786945305
H        -3.03985395018794    6.13821814945639    6.79929835521898
H        -1.63057698244184    7.12679306015930    7.17838777474606
H        -2.81537713311909    7.70053172777489    6.00615541768707
C        -2.96705886508500    9.27230834654763    8.26859840839281
H        -3.10001464124445    9.85738644071413    7.36098113300455
H        -1.91096377586031    9.27058509148694    8.52271243521851
H        -3.51190344467528    9.75806085848737    9.07584037444061
C        -4.95451605856056    7.92946543949182    7.61498588717334
H        -5.36752930091358    6.93944963395197    7.43420966736363
H        -5.01963673822712    8.49427359750017    6.68710102958199
H        -5.56108285341846    8.43920980623747    8.36026332094261
C         5.01278808420459    5.03958519273699   14.33933023167926
C         5.28273174023848    6.54934504334027   14.41039134175223
H         6.35365391348681    6.73997183790873   14.38348107571868
H         4.88198892046134    6.96010979239483   15.33503871009938
H         4.81987199666307    7.07169989220608   13.57771424622944
C         5.56546528317308    4.47622387998345   13.02236879230679
H         5.34918606277282    3.41226075024097   12.94718064155836
H         6.64414442617334    4.61347940496139   12.98143314873167
H         5.12460738052612    4.97557434457115   12.16433449981212
C         5.75192682430040    4.36226445528363   15.49671557574034
H         5.59800479716124    3.28544148330515   15.48296444398441
H         5.42564323772932    4.75766164134237   16.45598079098350
H         6.81978052577881    4.55017937983975   15.40371677253984

