70
CSD_code = SEQNUY | q = 1 | S = 0 | Stoichiometry = C35H28IrN6(1+) | MND = 6
Ir        1.00495848486128    3.72052585725395    3.85235533281410
N         0.17032060382873    4.96939368503564    2.42214078810743
N         1.86688977440661    3.18025032522416    5.65942847654800
N         1.33739269752552    1.93671856095916    2.68942300410569
N        -0.53139671606759    7.00568352606187    1.86340498514287
N         2.52706532750415    3.78086367483363    7.69762783508742
N        -0.86238875057847    3.14846800671070    4.51575502703069
C         0.88891702719674    5.41155245552707    4.84770600538175
C         2.83991441323356    4.11452791128951    3.10861285789332
C        -0.22192729279957    4.92648420086040    1.11425560476380
C        -0.23386183605717    3.88232215435066    0.19359494050719
C        -0.69849859062045    4.15365711853900   -1.07424040738628
C        -1.14542502199084    5.42857791200746   -1.43160282044129
C        -1.14076971407838    6.47564637165363   -0.53390062352652
C        -0.67223168098893    6.21366670518805    0.74665685710882
C        -0.84599793839007    8.40639213065253    1.93539046878454
C        -0.02160546909366    6.22691902677581    2.84920229974279
C         0.34438711890461    6.53896031280778    4.21695477538639
C         0.25198258485795    7.73071722597898    4.93541040027289
C         0.70729097405235    7.76800934826462    6.24530123776629
C         1.26491922072663    6.66172805749466    6.86953797270153
C         1.36503193138906    5.46209344879943    6.16537355285097
C         1.91941767933159    4.17977669277754    6.55314531149221
C         2.78735034874698    4.57474239415233    8.86728149853473
C         2.88625324241902    2.46243399585933    7.53310470413610
C         3.52722290104940    1.55553052578503    8.36658581239012
C         3.73639928766093    0.28399819700059    7.87488901589118
C         3.32305738494664   -0.08383093278066    6.59162812648350
C         2.68456019620426    0.80698199882262    5.75753992678014
C         2.46383232066102    2.09538511279837    6.23636035830915
C         0.51427784790811    0.90254921480511    2.54748445240851
C         0.80874912710785   -0.20213077319308    1.77267777314810
C         2.02867926230099   -0.22988024068274    1.10894449690093
C         2.88889615701185    0.83948257495382    1.25193483196114
C         2.52718034799277    1.92625875409364    2.05327331125822
C         3.36033063697671    3.10374894771594    2.27251572738698
C         4.62256714894351    3.24809197366005    1.69239500323231
C         5.37661903060978    4.37826250714357    1.92819592058288
C         4.87639821422021    5.37702204121769    2.74712777586879
C         3.62495473252867    5.24067572158650    3.32593886571852
C        -1.89768703326935    2.82225366073065    4.88876720057034
C        -3.18500928478933    2.41863785080694    5.35345654774911
H         0.11336036215730    2.90045675923784    0.47116937250672
H        -0.71952698538011    3.36775043132355   -1.81312398633115
H        -1.50153543633726    5.59653279561150   -2.43581137182225
H        -1.48856055953576    7.45365478605877   -0.82718651976847
H         0.04019701942377    8.98287106374673    2.20516946190456
H        -1.63448192479288    8.58727206613244    2.66824808323306
H        -1.19398128841435    8.73977543103295    0.96065800758045
H        -0.16382275805526    8.62701655637568    4.50518072047083
H         0.63126969294784    8.69300097886810    6.79636424670149
H         1.60703016131316    6.75788807221713    7.88691263464959
H         3.39642399569684    5.44297548977381    8.61100970631992
H         3.33062646127475    3.97015628753430    9.58957909079168
H         1.85301971124196    4.90771371275537    9.32299385562218
H         3.85392504926460    1.82246275731839    9.35929787359062
H         4.23273302370948   -0.44598295178498    8.49475589513953
H         3.51195706694747   -1.09014518614363    6.25151916171924
H         2.36666522057298    0.52686216633707    4.76648698839315
H        -0.42576269711282    0.96199569245236    3.08032007613769
H         0.10604873025605   -1.01515543163926    1.69063247654828
H         2.29940122079229   -1.07296352140997    0.49212799064007
H         3.83846588689477    0.83357149971993    0.74401124415583
H         5.02403299090003    2.47732556970743    1.05282014352893
H         6.35118763294081    4.48198293732175    1.47614621194737
H         5.46211826984816    6.26472768905348    2.93586239552519
H         3.26063723265279    6.03651198170235    3.96066413729658
H        -3.72277372944675    1.90500994156695    4.55650251036483
H        -3.75461139269055    3.29517832064175    5.66156098456444
H        -3.07515965345840    1.74570587096898    6.20379337714596

