68
CSD_code = SEQPIO | q = 0 | S = 0 | Stoichiometry = C34H27ClIrN5 | MND = 6
Ir        3.49722441461119   10.11732131541119    1.37296036849349
Cl        5.29411604932447    9.93302887467100    3.01810992348578
N         3.07001773493628   11.97732257738994    2.11998111920808
N         4.43673800967510    8.67729270122227    0.25843698548487
N         2.14215085241388    8.93090889351186    2.49068954474918
N         3.65802526729920   14.11915514336867    2.30130327310829
N         6.13978236220196    8.13189861870883   -1.07133848949228
C         4.75540409716405   11.20743833033980    0.36361212946709
C         1.88826268275698   10.14165979276772    0.14844958102736
C         2.28819461698064   12.54322973859109    3.08544425806353
C         1.27681381609230   12.00842172617582    3.87703811639549
C         0.66028148756096   12.84443944664642    4.78267311748155
C         1.02826763690274   14.18538491798591    4.90706921924216
C         2.02503165042861   14.73626613936192    4.12746421722166
C         2.65302776457757   13.90274787061110    3.21320401512552
C         4.35938299997124   15.35653531164563    2.10661263184033
C         3.88432631853749   12.93868425202905    1.66143606265405
C         4.84494819479515   12.58229671109614    0.64340331848227
C         5.81180149811856   13.34133118527360   -0.01348105271274
C         6.67306091881361   12.71702893567353   -0.90452858535367
C         6.63591752221797   11.34975589391477   -1.13821434050251
C         5.67636312670994   10.57455807453410   -0.48952952489533
C         5.45495022198194    9.14737772697280   -0.47637604086642
C         7.30703248016547    8.24485627876613   -1.89943526192503
C         5.53250557036758    6.95686852906565   -0.69849816243200
C         5.80196721873044    5.62904179358818   -0.99740359599930
C         4.97303859359635    4.67396539808866   -0.44461664405423
C         3.90218466084811    5.02417441174883    0.37984415541799
C         3.62544710833520    6.33986415927239    0.68241894670299
C         4.45374588646584    7.31744280800691    0.14049556730089
C         2.40258944767542    8.37368303526302    3.66616548456175
C         1.47623081095680    7.61216016004670    4.35519573411865
C         0.22255312406764    7.42758817647834    3.78790211939122
C        -0.05122552245086    8.00697520602172    2.56397053527649
C         0.93013894506652    8.76385542478110    1.92048543892907
C         0.77266141643428    9.42250406049919    0.63013968293529
C        -0.40327966053545    9.36507582435814   -0.11886285106446
C        -0.48783287541524   10.00396141022610   -1.33638812761935
C         0.59876531675873   10.71591797408014   -1.83521922825243
C         1.76500747711722   10.77270794627896   -1.08322266240169
C         0.51157813476754   11.38783224072005   -3.17255359379672
H         0.99395320259890   10.97330051776543    3.78075421815601
H        -0.12570771880162   12.45794995257969    5.41388056497162
H         0.52071746751231   14.80530601833450    5.63067284766337
H         2.29751808998511   15.77544387304046    4.23496729901356
H         4.20693227398018   15.73008121626577    1.09162592618623
H         5.42764663699763   15.22092326725845    2.28574077205536
H         3.97776079838768   16.09230360359597    2.81125860319678
H         5.91730736528131   14.40214288451469    0.15260923635587
H         7.41624563188480   13.31275580709674   -1.41496485096061
H         7.35771414537010   10.91966080111183   -1.81503349074821
H         7.07714999220757    8.79128287262493   -2.81689433171320
H         7.64962918637309    7.24652923813348   -2.16313106837953
H         8.10623618730825    8.75917016610796   -1.36250328541488
H         6.62532516288782    5.34172176330904   -1.63397405205507
H         5.15676923066927    3.63089725618118   -0.65383097449954
H         3.28016328541466    4.24200283868895    0.78834612740459
H         2.79977706328749    6.61207654920204    1.31887145788521
H         3.39475903239099    8.55236347635764    4.05986946650185
H         1.73026866748701    7.17685285219950    5.30829550897521
H        -0.52971286762678    6.83962078145349    4.29373325250800
H        -1.01946366838329    7.87419432339342    2.10879906803002
H        -1.26106580533512    8.81957702558215    0.24725894255644
H        -1.40320655567631    9.95345876824019   -1.90949667923078
H         2.60470666924640   11.33085403118767   -1.47623955726491
H         0.69163439994533   10.66127206657575   -3.96595863691390
H         1.25540463687663   12.17606551331786   -3.26006984168758
H        -0.47765988730323   11.81383352068517   -3.32872390738627

