41
CSD_code = SEQRIS | q = 1 | S = 0 | Stoichiometry = C16H18ClN4OZn(1+) | MND = 5
Zn        8.53771050040476   12.27773024031856   10.00543560618735
Cl        9.02962764536522   13.66145511147608    8.44667770062866
N         7.15032044883414   10.75067205478673   10.39049070234027
N         9.83067786747833   10.49176429144470    9.61493978417202
N         9.93967697842442   12.28087800438594   11.60226620206095
N         7.76117522757373   13.80017540220244   11.39765487313606
C         6.01052272747973   10.82792964680327   11.06641768054406
H         5.73267513345258   11.80917328858766   11.42208114791963
C         5.21423255708498    9.72230462196738   11.31127462105874
H         4.29045404431890    9.82895773999896   11.85632610614927
C         5.62893658634954    8.48648039324950   10.83869461561397
H         5.03424914958649    7.60208800859676   11.00673006789130
C         6.82358144616184    8.40799503579990   10.13934293913901
H         7.17893435085713    7.46755652801181    9.74914262685299
C         7.55496997039069    9.56811862926197    9.93470896814421
C         8.80824110060403    9.57952833587213    9.10001468593813
H         9.20817262243106    8.55275478661860    8.97438506292510
O         8.48654616711748   10.15729799536957    7.87100750405027
C         9.72238615796385   10.53764084043203    7.27246243648660
H         9.54415010530339   11.46595577734108    6.73099300048405
H        10.05554982952895    9.75942830655700    6.57774345015131
C        10.69727086417055   10.70700763270199    8.45028621421300
H        11.49677555984396    9.95691672366687    8.41522402397373
H        11.13155980806655   11.70537130767263    8.47313459252622
C        10.50728870325886   10.08902491988027   10.83467877955258
H        11.34229838393276    9.40508902507770   10.63714530637691
H         9.78150371138101    9.58175565237717   11.47618022198744
C        11.01609440143823   11.34399033985616   11.56052639464828
H        11.39844665637722   11.09413444950549   12.55600983548809
H        11.83107105423273   11.78895481700464   10.97833926457674
C         9.80883951410278   13.20558232168691   12.45329554457449
H        10.52070810232888   13.38665213600490   13.26030812615475
C         8.67044500603638   14.10884188353526   12.33299846101374
C         8.56173717288955   15.24995413327187   13.12236715093336
H         9.31138920792075   15.46802723470586   13.86692500748341
C         7.48757003760153   16.10396189985386   12.91927363708783
H         7.38160819523219   17.00074433306169   13.50975912843624
C         6.56175030213245   15.78519004096808   11.93937338288080
H         5.71669129876047   16.42432156801669   11.74114186344652
C         6.74150011455725   14.61874180922578   11.20454347365690
H         6.04336128902485   14.33915273284569   10.42719980911406

