76
CSD_code = SEQRAI | q = 0 | S = 0 | Stoichiometry = C29H43CuN2O | MND = 2
Cu        0.35128225094789    7.93879349096483    3.31932451761821
O        -0.18398442901410    8.32798696749609    1.70286626424850
N         1.79662880380055    6.64846338284344    5.44320544685733
N         0.30665750565788    8.03956497698213    6.15430986044138
C         0.85656653956124    7.51360056971274    5.05533906567403
C         0.86203267075796    7.51326217060614    7.39856793510796
H         0.08161354117449    7.00498971656979    7.97478502341080
H         1.26276830158323    8.32553247957297    8.01235618970659
C         1.94494059657998    6.55587889475746    6.89399403385057
H         2.95376455427405    6.86268980481545    7.18962335673161
H         1.79184893159333    5.52515806258168    7.22761621769621
C        -0.72943806741023    9.00912266202208    6.15078209189145
C        -2.06067936111599    8.58777725233094    6.11244956747175
C        -3.05635005901166    9.55516451835397    6.10855042352739
H        -4.09253805336279    9.25665503869944    6.06835123845316
C        -2.73751335102647   10.89906494635634    6.13982747397820
H        -3.52390495723457   11.63921989723664    6.13050961759710
C        -1.41533291928426   11.29961573260645    6.16302631773496
H        -1.18033860855203   12.35258033597145    6.16281954245801
C        -0.39004358861555   10.36423180015009    6.17039881427173
C        -2.41761661275861    7.12343836273527    6.01788111882174
H        -1.50559076402595    6.52845937190548    6.12039607994575
C        -3.00120164086212    6.82867687731884    4.63429791383780
H        -3.90690647063641    7.40536985012400    4.46375126725128
H        -3.23970896548200    5.77121175659775    4.54279657513265
H        -2.27439051712244    7.08865010655216    3.86501759300308
C        -3.38479064800525    6.70590124596249    7.12737378484489
H        -2.98561912462963    6.97167457150426    8.10483991962065
H        -3.54225370508112    5.62964718841929    7.09866407109319
H        -4.34977294191262    7.19158040647277    7.00966302543446
C         1.05327579842191   10.80738727211593    6.13064472118211
H         1.69692995897147    9.93585968834797    6.27934482258626
C         1.36815839914639   11.37559467005030    4.74491133244133
H         1.17864390554488   10.61803033773107    3.98490572887153
H         2.41279993884132   11.67378990824515    4.68766861329684
H         0.74650005106843   12.24211573647966    4.53328476407290
C         1.36979440120576   11.82174376013589    7.23102748955762
H         2.43793436486136   12.02765222113980    7.25059827113887
H         1.07352068594183   11.43638437622430    8.20505527172179
H         0.84929899628591   12.76040838819588    7.06222005082355
C         2.60588326665238    5.87374250752935    4.57238435390368
C         2.17567539028323    4.59695207861482    4.20386131096201
C         2.99269137549262    3.84197621258110    3.37420303251760
H         2.67998696687023    2.85648477510057    3.06575136297751
C         4.19949055558435    4.34289503123309    2.92506138262301
H         4.82473028145930    3.74235995570507    2.28087430863756
C         4.59843282856509    5.61743675887954    3.27829823149459
H         5.52964634595073    6.00635960678175    2.89649020637709
C         3.80989917694293    6.40518339096874    4.10562991830511
C         0.82380009231909    4.07732942437864    4.63171953697732
H         0.40720231519046    4.74943148008041    5.38725934415401
C        -0.12192039133885    4.10090400057344    3.42814175720440
H        -0.19071002834722    5.11376723061628    3.03153247721778
H        -1.11615581930126    3.77239564823729    3.72285136113953
H         0.24155219445300    3.44644343702398    2.63990127339622
C         0.91117742208494    2.67751008749796    5.24191299836625
H         1.20004787858070    1.94110837145532    4.49713899838340
H        -0.05662569467266    2.38664592125716    5.64500218331469
H         1.64285162996475    2.65485604022962    6.04767850582627
C         4.21508481618777    7.82344952094000    4.42897650994733
H         3.52888465214152    8.22704969930568    5.17912723324373
C         4.07335813623012    8.68250949212051    3.16994035997598
H         4.31592668423252    9.71954472172534    3.39120332147061
H         3.04820955544648    8.63408586238171    2.80256703851890
H         4.73741845942248    8.32967479109927    2.38490054166003
C         5.63412067631581    7.89948133710716    4.99491100465589
H         5.73918983444923    7.24375933462061    5.85742210081348
H         5.85614588462960    8.91820019867904    5.30541347812158
H         6.37013768737180    7.60612409860193    4.25141308533744
C        -1.31175061174074    9.03067944023257    1.34848414194167
H        -2.20465174871425    8.37087039801130    1.38234305480341
H        -1.19377908726073    9.36073112228105    0.29991191292940
C        -1.60204002928113   10.26741924127942    2.21122075310001
H        -1.74559613499665    9.97883364710855    3.25333837178828
H        -2.50075712586476   10.76827408736854    1.85597182680083
H        -0.76664284638285   10.96330225150467    2.15851730771204

