117
CSD_code = SEQROV | q = 0 | S = 0 | Stoichiometry = C62H52P2Pt | MND = 4
Pt        3.31483521384419   17.13933004404357   16.37485385047251
P         1.92557761634866   17.25173643194432   18.22267005948616
P         4.67786409312854   15.55802613284556   17.41610425353405
C         1.62932345800439   15.57189437893754   18.84678948306016
C         0.47528529493885   14.93442943386449   18.33688429592078
C         0.22526729398417   13.61976817652458   18.58282941565560
C         1.12645279569287   12.85376704427443   19.35211142821661
C         0.89199144510784   11.49087843052565   19.61855286307474
C         1.78177862163351   10.75559249423598   20.34988623546052
C         2.94706250304294   11.35856289715655   20.84294456636635
C         3.20403388953390   12.67832910718144   20.59710831567253
C         2.30361443072548   13.46890087904903   19.85042513830572
C         2.55991575656818   14.84010756745295   19.56131471622599
C         3.82680727043766   15.42250351086872   20.06365456414109
C         3.94652934855191   15.69554900717425   21.45185934149365
C         2.86347285377338   15.52682223691178   22.34236969365757
C         2.98746097380349   15.83998393433318   23.66632144811380
C         4.19895135812032   16.33583639875597   24.17052411793100
C         5.26803599240792   16.50452632112015   23.33659663227711
C         5.17166042242457   16.19232511702189   21.96620243733351
C         6.26193560135803   16.35875024562453   21.08835995860697
C         6.12966468434702   16.09345320279421   19.75828505466770
C         4.91024009956850   15.62993660222893   19.22309933442625
C         2.80401012558947   18.12207585848388   19.55995836927218
C         2.29276471555608   18.26189686344108   20.84427245460762
C         3.02302128654539   18.92894071227121   21.80705301053464
C         4.26821359439807   19.47368104577450   21.51250989180636
C         4.75772261080621   19.35973786857875   20.21714307353643
C         4.02987018530456   18.69610908795132   19.25005222007032
C         5.05043001473527   20.18603178264225   22.57257597452764
C         0.30836588736309   18.08079555189136   18.39071658254641
C        -0.69427399101349   17.70748549177466   19.27787490198432
C        -1.85604639636857   18.45283432847021   19.36142612207893
C        -2.04125510433796   19.58452360395336   18.57693568403952
C        -1.03027438066822   19.95703333197395   17.69682340508704
C         0.12847012250182   19.21388707836761   17.60300232244606
C        -3.30766185044680   20.38083180021458   18.65644188040853
C         3.99210807422632   13.90107052138848   17.16135673674383
C         2.88102807197222   13.79648121848570   16.33613136908174
C         2.29683627539836   12.56677512307601   16.10553060178734
C         2.81207266145960   11.41984923616419   16.69520612515881
C         3.92865240119897   11.53158906558640   17.51845598227775
C         4.51511819676715   12.75764885448904   17.75682921553915
C         2.19067071980899   10.07867462970199   16.45341952398697
C         6.35612871077424   15.44687088571591   16.72201136718808
C         7.06640317628509   16.64469706916367   16.63148073416232
C         8.29927007136290   16.69005829666962   16.01700075088362
C         8.84926019306214   15.54363116017731   15.44912436002423
C         8.12682732667994   14.36051307816451   15.51566792896625
C         6.89253430994213   14.30690752128425   16.13912853926863
C        10.17175070228656   15.60680388188683   14.74867189828242
C         3.87176439331755   20.30330701503251   15.68086444519903
C         3.82609178939667   21.64955758920748   15.97777725234044
C         2.76203080811968   22.42687521041308   15.54747357718034
C         1.74204024138389   21.83875429720547   14.81867177364703
C         1.78501181273756   20.49027711149644   14.52154786182916
C         2.85048135873000   19.69111266347244   14.94530533956395
C         2.85503633735170   18.25337943191781   14.65361229687121
C         4.07756532347020   17.52824339927834   14.47268830399650
C         4.17902181627358   16.26535855978341   13.73555698420954
C         5.44625900989292   15.77874582971390   13.39507779724476
C         5.60146312421911   14.56005220650725   12.76778701369686
C         4.49344987592826   13.79309606529724   12.44730007350768
C         3.22939684687207   14.26782122838230   12.75514938132142
C         3.07069293069817   15.48520074967673   13.38624638695160
H        -0.20417451467964   15.51883611017076   17.73024422447124
H        -0.65919986444762   13.14155468747984   18.18651814397907
H        -0.00907878180455   11.03806753980157   19.22941420633471
H         1.59535816814017    9.71052297360379   20.55142574581360
H         3.64657330444229   10.76992016343206   21.41869042985130
H         4.10754063066447   13.12956770488680   20.97879257438722
H         1.92723449109995   15.14814072292882   21.95968378122573
H         2.14912743053470   15.70944815862949   24.33523826156426
H         4.27827846538637   16.58071229247903   25.21989200641941
H         6.20721950513664   16.88442789186001   23.71366487885031
H         7.20338143820158   16.70907709452353   21.48748859836397
H         6.97123601281611   16.22699736357040   19.09381264351500
H         1.32910040606216   17.84111212831764   21.09203911449637
H         2.62832332364330   19.02125620558634   22.80912040641277
H         5.71777001723554   19.79094184990691   19.97028654248182
H         4.40304992710229   18.59638527936800   18.23237341651857
H         6.10487415422721   20.23313420171669   22.31187492958182
H         4.94348778690894   19.68099773840143   23.53025158603288
H         4.68237369376423   21.20612312983685   22.68739593100716
H        -0.57645868778689   16.82827997749068   19.89669974785668
H        -2.63239657482362   18.15088872602458   20.05114203569093
H        -1.15590857286726   20.83542854421851   17.07977475809721
H         0.91091873715936   19.50279503973632   16.91276484756910
H        -3.87915971593007   20.11956817340118   19.54372169630547
H        -3.92713691464119   20.18579628391327   17.78060248706889
H        -3.08949686593657   21.44684112532151   18.67789627825665
H         2.47553050488956   14.70248972345294   15.89214175370979
H         1.42819417246794   12.49558304449078   15.46674743323893
H         4.33254142245190   10.64410505995944   17.98538633419447
H         5.37105014070888   12.83657749931375   18.41399935910174
H         1.20732392849847   10.18126501930532   16.00172276527266
H         2.09538692271593    9.52961123160544   17.38829901388036
H         2.81648199800100    9.49072306664728   15.78155613858224
H         6.62617735324000   17.54787988982534   17.03826925132567
H         8.84000952241185   17.62470090285790   15.95712563722764
H         8.53051174111376   13.46521560316002   15.06369146744107
H         6.34292741490420   13.37751195552262   16.15609743825193
H        10.58347791278422   14.61126143456852   14.60247307506973
H        10.88234468707108   16.20342057579827   15.31778081965287
H        10.05323514062674   16.07384410775759   13.77033535472599
H         4.70421422461422   19.70755597327248   16.03678165409480
H         4.62206496134508   22.09940785054302   16.55489634571490
H         2.72672107622952   23.48056663119144   15.78290568573659
H         0.90697534510572   22.43616923411757   14.47971587479075
H         0.97901978877564   20.03969560354668   13.95765094081364
H         1.97004777118201   17.91757537599640   14.11035712272956
H         5.01056855857709   18.09650395844444   14.48155497148086
H         6.32023545018437   16.36505583700118   13.64577009016511
H         6.59393272285231   14.20511945492916   12.52697242370446
H         4.61313944727012   12.83659392764549   11.95949925405120
H         2.35798270713274   13.67974935943473   12.50191377467412
H         2.07128368976926   15.82787067278394   13.61734003005012

