35
CSD_code = SEQTEN | q = -1 | S = 0 | Stoichiometry = C12H21SiZn(1-) | MND = 3
Zn       11.77745099429665    6.42822401307772    3.20759988182699
C        10.96304239680902    5.78343089271304    1.20241415154545
C        10.34345011141726    6.94136247371786    0.61338850282185
C         8.96135325220717    7.17872409524212    0.74961472789677
C         8.35467270518239    8.29168096227793    0.21253305305658
C         9.09291637041375    9.22757516807447   -0.49730621080741
C        10.45892076836194    9.02203184237496   -0.64236892034754
C        11.06731174713323    7.91162852135592   -0.10505117508129
Si       12.41277239528575    4.96365564861075    0.36996166294650
C        14.12277548462811    5.72980323017609    0.80185586094430
C        12.51208518534220    3.13310947660227    0.92894363608981
C        12.34698332755998    4.91429922431971   -1.55479031646456
C        11.87697661071931    4.84484233417460    4.59047778770588
C        12.32285597185449    8.43238039387609    3.38229412839167
H        10.21218166553879    5.05388510342036    1.51473641605499
H         8.36439431763183    6.46298074439929    1.30353170352067
H         7.28685679574126    8.43637981946834    0.34081706266432
H         8.61594659869716   10.10087213651828   -0.92442300665999
H        11.05278749274200    9.74817488419016   -1.18754374482237
H        12.13439183640722    7.78185528902970   -0.21494545643603
H        14.95290661504847    5.12945260308992    0.43573499680557
H        14.22715660634319    5.82100329583431    1.88141083197265
H        14.22942013283767    6.72560846881416    0.38290513318290
H        13.40187549160679    2.63961394748898    0.54843504906325
H        11.65000870439347    2.56863366044509    0.58780293046525
H        12.53648767809148    3.07463088966511    2.01097588833113
H        13.27351824124724    4.54933334309876   -1.99090311537272
H        12.16018920696197    5.90556532873430   -1.95411262702119
H        11.54253928196683    4.27143307384273   -1.89991037123831
H        11.14831236923314    4.05627769804560    4.40211963807873
H        11.72632533823825    5.15948698500182    5.62494271001795
H        12.85654681591109    4.36164251443341    4.56273180821657
H        11.75736913141389    9.06446140014746    2.69973036635838
H        13.37525630926435    8.59428731508760    3.14238158892865
H        12.17296204948022    8.84517322264934    4.38171542735782

