149
CSD_code = SEQVUG | q = 0 | S = 0 | Stoichiometry = C78H64O2P4Pd | MND = 4
Pd       -0.58541147376295    5.70055021099650    4.66544318259098
P         1.33135138292832    4.32960072388701    4.99369415818465
P        -0.42507122041179    7.11196028760187    2.70701636917657
O         1.03749607487544    4.72039211544134    2.26401734618677
C         1.40098259734255    3.41663856233673    2.43718809320759
C         1.56307907902386    2.99797306809449    3.76180418045884
C         1.91483409766348    1.68007685469783    4.00999977319465
H         2.05627984008971    1.33837210504852    5.02473426168918
C         2.06932273178045    0.79974661458985    2.95456686097852
H         2.33259911440668   -0.22962527396355    3.14955540632352
C         1.91009222139136    1.22929976400964    1.64811460988652
H         2.05621264332235    0.52209708396446    0.84738445487363
C         1.58265497393982    2.54792081946543    1.36463051584046
C         1.50512310305733    3.13004602657863   -0.03276759100568
C         0.44727522836213    4.21729548659197   -0.01908510499629
C        -0.35581998830420    4.53817375104657   -1.10351949335971
H        -0.32251108810763    3.93889720849225   -1.99878217124526
C        -1.20026672274081    5.63470035481620   -1.06485349800107
H        -1.81472204960958    5.86570765608737   -1.92246849680700
C        -1.23838257187853    6.45257624422876    0.04821164873757
H        -1.87376610977861    7.32558375587107    0.06018324799471
C        -0.46216818779060    6.14960890192603    1.15798798332312
C         0.35164158603573    5.01248419088712    1.12149179566574
C         2.85973863243338    3.81453187099457   -0.31855694490635
H         3.07949764936356    4.56694093606949    0.43677166103095
H         2.83604456799599    4.29905003683126   -1.29291466044448
H         3.66007961348517    3.07711479015528   -0.31034239702847
C         1.25277545110312    2.07215845567654   -1.10581642691825
H         2.04520501792659    1.32844586210712   -1.09756963837989
H         1.25307123271726    2.52875420820847   -2.09207543355796
H         0.29805905593223    1.57863276186802   -0.94358758588073
C         3.04504951424472    4.95340398615569    4.80155708996506
C         3.21715714135429    6.22612729913234    4.27712259720362
H         2.33906911009729    6.82224624579949    4.06340470687257
C         4.48620281575368    6.72417543296026    4.04456190994829
H         4.60648019481802    7.71809366500299    3.63757881551743
C         5.59289634646826    5.94658230710854    4.34010423926512
H         6.58804932240779    6.33006624729872    4.16521962728828
C         5.42635809991818    4.67094729133990    4.85921600911289
H         6.29195910223935    4.06386382603785    5.08444038582104
C         4.15822862894449    4.16868323372166    5.08298363706896
H         4.02972049858754    3.17033245876658    5.47797997516826
C         1.40917235981105    3.42276495268433    6.57044622759035
C         2.19879050201672    3.84831607501383    7.63429480963858
H         2.88200292962127    4.67624820140903    7.50252292634063
C         2.12444743295160    3.21122754068972    8.85887861217619
H         2.74209163108188    3.55063098779471    9.67790614266245
C         1.26636861357103    2.13949622575433    9.03739580168818
H         1.22258259628211    1.63618369768322    9.99260868421899
C         0.46291826295908    1.71965983498686    7.98957836149465
H        -0.21416045956446    0.88717324808476    8.11881336740954
C         0.51948965059524    2.36971136769940    6.77265242220217
H        -0.13217703252490    2.06273247379040    5.96428382195353
C         0.99531865780129    8.21715868389271    2.39115802320638
C         1.76880096202047    8.20408601609013    1.23765779738181
H         1.52390352568911    7.53009154651654    0.42884337792896
C         2.85437476028649    9.05601425275737    1.12442510452991
H         3.45389931055864    9.04116267963713    0.22507375147411
C         3.17561349064487    9.92546687692934    2.15341351023280
H         4.02487043123041   10.58674235157354    2.05711637178432
C         2.41012721693954    9.94115145634336    3.30987752719152
H         2.65910411190430   10.60913154250421    4.12202651631781
C         1.33198074117697    9.08749896591030    3.42785424003432
H         0.74272440476032    9.07258890147006    4.33770706963476
C        -1.81436443212093    8.25891887845194    2.40604855366695
C        -1.69848586502902    9.62957629174581    2.20894283877012
H        -0.72312590581449   10.09214647400012    2.15554883542127
C        -2.83716857433176   10.40798755005162    2.08314399324044
H        -2.73956362727514   11.47387859097980    1.93113421616387
C        -4.09455341115016    9.83223624312672    2.15253112612045
H        -4.97768940267657   10.44779165092550    2.05877985486039
C        -4.21727859114632    8.46451482529589    2.34615187399103
H        -5.19504265359871    8.00808582772732    2.40861389847307
C        -3.08368949660639    7.68940662700647    2.47515536645195
H        -3.15710497561223    6.62175213703348    2.64432066752764
P        -2.50217398734690    4.32960225038111    4.33718937073916
P        -0.74575220597927    7.11196062527880    6.62386900138311
O        -2.20832300211746    4.72039353754732    7.06686898026587
C        -2.57180610966644    3.41663957669703    6.89369595956854
C        -2.73390763736219    2.99797671227315    5.56908029254763
C        -3.08566467074389    1.68008047006992    5.32088286368340
H        -3.22710346797763    1.33837600764289    4.30614745190532
C        -3.24014866533620    0.79974879553097    6.37631485920897
H        -3.50342588909926   -0.22962324626046    6.18132866406173
C        -3.08091293585850    1.22929950317589    7.68276784273440
H        -3.22703669116604    0.52209602620939    8.48349713865183
C        -2.75347485278984    2.54791926468441    7.96625325634458
C        -2.67594520246464    3.13004427294245    9.36365128857344
C        -1.61809747707114    4.21729346557991    9.34996997397537
C        -0.81500243048677    4.53817154416956   10.43440341509884
H        -0.84831043548526    3.93889621017203   11.32966721681808
C         0.02944395347683    5.63469960488997   10.39573782931344
H         0.64389743184081    5.86570535531393   11.25335435553139
C         0.06755902336566    6.45257600248709    9.28267341550489
H         0.70294363043520    7.32558259684343    9.27070126496703
C        -0.70865624431426    6.14960839728200    8.17289712952618
C        -1.52246509762586    5.01248417983296    8.20939332809621
C        -4.03056098051282    3.81453132507757    9.64944139236096
H        -4.25031864499504    4.56694218886979    8.89411464131249
H        -4.00686755225773    4.29904603815455   10.62380048126547
H        -4.83090071040812    3.07711353485306    9.64122361337167
C        -2.42359619639610    2.07215564981224   10.43669951912899
H        -3.21602812250046    1.32844536394572   10.42845359363499
H        -2.42389003007311    2.52875109903267   11.42295888768379
H        -1.46888114225874    1.57862700341396   10.27446985618447
C        -4.21587374525353    4.95339720379958    4.52933694843954
C        -4.38798279902086    6.22612309882842    5.05376531190760
H        -3.50989416898405    6.82223855492606    5.26748938233713
C        -5.65702874682308    6.72417191963317    5.28632193217530
H        -5.77730708572816    7.71808321044521    5.69332105988647
C        -6.76372196519348    5.94657595228664    4.99078288836064
H        -7.75887466247320    6.33005639196494    5.16567632860025
C        -6.59718262958581    4.67094066300034    4.47167402389014
H        -7.46278313910869    4.06385695322644    4.24644780766418
C        -5.32905232983094    4.16867582478642    4.24790965471881
H        -5.20054519335169    3.17033000515694    3.85289973168422
C        -2.57999535415928    3.42276547052039    2.76043821093502
C        -3.36961477613999    3.84831826816558    1.69659123878928
H        -4.05282623318093    4.67625080539861    1.82836474892471
C        -3.29527374546974    3.21123109538409    0.47200658478331
H        -3.91291962728392    3.55063602815102   -0.34701922545249
C        -2.43719532315782    2.13950018727588    0.29348673375761
H        -2.39341053139208    1.63618852915301   -0.66172665002142
C        -1.63374286340360    1.71966281595849    1.34130243473473
H        -0.95666308721059    0.88717753907826    1.21206509469150
C        -1.69031281786474    2.36971232773077    2.55822948794037
H        -1.03864444850197    2.06273278301732    3.36659649787325
C        -2.16614221194539    8.21715862894505    6.93972914455578
C        -2.93962186823845    8.20408712590118    8.09323116143297
H        -2.69472282655334    7.53009362621832    8.90204578555599
C        -4.02519772395200    9.05601281981098    8.20646378414267
H        -4.62472051145966    9.04116210846623    9.10581635480926
C        -4.34644059445407    9.92546236898004    7.17747407996312
H        -5.19569744163936   10.58673779657845    7.27377237391461
C        -3.58095608503962    9.94114674518612    6.02100883479554
H        -3.82993427922692   10.60912641481629    5.20885991475939
C        -2.50280817379124    9.08749607651849    5.90303180798130
H        -1.91355277040684    9.07258599706338    4.99317833181724
C         0.64354100072716    8.25891901214678    6.92483729831964
C         0.52766168749246    9.62957660604129    7.12194171817116
H        -0.44769868675371   10.09214610230204    7.17533408320787
C         1.66634383452156   10.40798826022260    7.24774234587577
H         1.56873805203326   11.47387945360898    7.39975041641459
C         2.92372893267158    9.83223721563360    7.17835740422956
H         3.80686476185256   10.44779280038998    7.27210900598163
C         3.04645471903397    8.46451571409982    6.98473819717509
H         4.02421886129299    8.00808668576279    6.92227728634091
C         1.91286615356569    7.68940678856052    6.85573376485663
H         1.98628236443683    6.62175226558832    6.68656900376474

