72
CSD_code = SEQVEP | q = 0 | S = 0 | Stoichiometry = C32H36ClOPRu | MND = 9
Ru       13.79686598749367    0.75918249789414    1.73153488536614
Cl       12.95993837979256   -0.86774439169115    3.27267092134027
P        15.00363288801016    1.54685855321779    3.52872661178206
O        14.28357753383130   -1.59751547111332   -0.89969429774027
C        13.28004269136085    2.55684264700812    0.51452032079070
C        13.00616215230372    1.41286974053006   -0.30671417859996
C        12.00847456608595    0.63096276372312    0.33862860952525
C        11.58630098566885    1.33850497338826    1.51405322667719
C        12.36993508416064    2.52316488488986    1.62877755586033
C        14.02622458721092    3.77668162293194    0.06605940049920
C        13.46944522229774    1.21203218687092   -1.71222737878201
C        11.30357098854628   -0.54852175816657   -0.25185271261910
C        10.38241568247163    0.96251736011533    2.32013826545428
C        12.10592993198544    3.69957831471017    2.52169265929433
C        15.32188645236523    4.25597547096148    4.29910183402338
C        15.81402111802228    5.53889658129126    4.12838572487245
C        16.62368171622078    5.84019509637755    3.04667868398398
C        16.92758124822371    4.85452633764530    2.12133576787300
C        16.42711584445009    3.57586834059137    2.28262929739836
C        15.63442330290581    3.25634138401529    3.38317313711377
C        12.82226373884025    1.59232410461302    5.27783141649783
C        12.21642966312918    1.66078267320727    6.51982739427761
C        12.99037124008596    1.74743333087341    7.66416005446431
C        14.37278709731160    1.76738515069637    7.56415077354765
C        14.98163751536684    1.69789338394897    6.32540298210450
C        14.20618090522099    1.60565114910844    5.17124300002480
C        16.27956064584711   -0.69075300936734    4.44975834667389
C        17.34468847174250   -1.50176842968354    4.79096191359099
C        18.64277167358931   -1.03114824470908    4.66563560431136
C        18.86958833985348    0.25410125722114    4.20468647768506
C        17.80651962471172    1.07288187526647    3.86121761998717
C        16.50410749918519    0.60404285627922    3.98060977750519
C        15.68317649877837    0.32645849833899    0.75881944548186
C        15.14386925864707   -0.90124724354817    1.20069758006970
C        14.45164518830689   -1.82147238378660    0.29156710854199
C        13.99905785872449   -3.11443130251576    0.92296378163172
H        14.93958758067925    3.51271023341296   -0.46297095153241
H        14.28863016757139    4.40984135125948    0.91002511518448
H        13.39591038207893    4.35516470385567   -0.61380128428746
H        14.28832980860199    1.88259753591061   -1.96283805920050
H        12.63654770863863    1.41761771294562   -2.38752064364074
H        13.78476720693840    0.18211343259968   -1.87508236235711
H        10.93557271396001   -1.21080864121630    0.52974882482819
H        11.97392758579883   -1.10890356960024   -0.89997544218956
H        10.45318241855278   -0.20980546714940   -0.84889413266339
H        10.55463184551980    0.03719225929384    2.87363467183195
H         9.53929201910628    0.79801396568275    1.64821098044313
H        10.11518792573086    1.74480521101185    3.02783376978133
H        13.02631826145717    4.08563188837667    2.95924352600145
H        11.42450280758557    3.44895867111938    3.33080031473239
H        11.65460802221465    4.49820856272588    1.92880412275974
H        14.69280755170518    4.03474868086258    5.14920963167852
H        15.56268492194598    6.30610874818078    4.84621497328076
H        17.01007722923280    6.84059143405860    2.92030098578081
H        17.54937851481884    5.08581183175463    1.26864895929798
H        16.63796175173709    2.81507975120465    1.54499456709942
H        12.22613937540490    1.49730053221965    4.38330701925708
H        11.13902062652676    1.63871238505759    6.59552431562190
H        12.51910218950976    1.79509050027327    8.63492784342209
H        14.97889328272348    1.83441162983953    8.45603568190931
H        16.06037905113309    1.71472670087795    6.24944576242381
H        15.26145764927868   -1.04742940910184    4.54664498511777
H        17.16382532674492   -2.50278686781287    5.15399861997575
H        19.47642973057408   -1.66501526870516    4.92963230632142
H        19.88012504423715    0.62511242454203    4.11182510254530
H        17.99549420670587    2.07803470944531    3.51166388300069
H        15.62931854677524    0.53418131695193   -0.30696057215488
H        16.61082249871570    0.65409259274196    1.22492771907595
H        15.58416466226803   -1.37939115121277    2.07814283811795
H        13.43025575711035   -3.70527088374667    0.20948918754492
H        13.39103218505412   -2.89588877672055    1.80010360009641
H        14.86855186061552   -3.68090953207921    1.25185253036583

