72
CSD_code = SEQXES | q = 0 | S = 0 | Stoichiometry = C31H35IrN2O2S | MND = 8
Ir        7.42601671066748   10.47476122991661    3.75432898688665
S         6.82020778436722    7.83922723095796    5.74453567141272
O         7.51869975664348    7.10098305400821    4.71873383960662
O         5.66215365881471    7.21348363406846    6.33505360835440
N         6.40482491941164    9.28129791043011    5.14975133309479
N         5.77712213786174   11.79268683712460    4.45733607570010
H         5.88464413376572   12.79297414037116    4.30184522014492
H         4.88003324058718   11.49402257781115    4.07400432687877
C         7.98482806942483    8.18919524551394    7.06189684498849
C         9.30851776019976    8.41371607855391    6.74630968829761
H         9.62003956085406    8.29254514917637    5.72274436402552
C        10.19799142317132    8.77448441594829    7.74237178181215
H        11.23756547877975    8.94134533917705    7.49975186918265
C         9.76641768748615    8.93535161344843    9.05279574135985
C         8.42903293977142    8.69809874615736    9.35362719840533
H         8.08646729940505    8.80866464996600   10.37266196525507
C         7.54045278497978    8.31920015125367    8.36382665460697
H         6.50839596594618    8.09729485160721    8.58861426587148
C        10.71396274460236    9.36186030002971   10.13287586995724
H        10.44272248228060   10.35267097017785   10.49602740868580
H        11.73541873411512    9.39723334742490    9.76373053486170
H        10.66924027389841    8.67444844323486   10.97593762617703
C         4.04546628353922    9.73224006464286    5.63238999044604
C         3.71927596107624    9.26508813847485    4.36639505006741
H         4.52057294928317    9.02114973936299    3.68557138033352
C         2.39652682486947    9.07238330099526    4.00883609218695
H         2.15249955018756    8.69900955176672    3.02441467391306
C         1.38522939268955    9.34970396817726    4.91252098798489
H         0.35231556751219    9.19656565777714    4.63597102934664
C         1.70371074491821    9.81081361934118    6.17910785754398
H         0.91819829400279   10.01605072809789    6.89198141507550
C         3.02628921480682   10.00183299795547    6.53673282651726
H         3.27362243367540   10.35107163826513    7.52953126898710
C         7.91847965542481   11.29945338069916    1.78232749708606
C         6.94326850200852   10.26218653024311    1.47523142535258
C         7.46682180892687    9.04053958227468    1.88147876888884
C         8.76964244209617    9.28083449134755    2.48468885036591
C         9.08876541593248   10.67021256743831    2.29505243911095
C         9.72618753820334    8.17990994633564    2.81112539420050
H        10.06674949811078    7.70113217303245    1.89111406903491
H         9.22272617966591    7.43224491841327    3.42105547956971
H        10.59535324628555    8.55349189302431    3.34724148227160
C        10.43730565010766   11.31208035925428    2.40790020550787
H        10.85040075524184   11.45738414224680    1.40810126235567
H        11.12308796408163   10.68323084176877    2.96803726444339
H        10.37862622246613   12.28290645413202    2.89510367655253
C         7.85587494191969   12.70956707554781    1.27811885677784
H         8.45562353884683   13.37043801556915    1.90005207609060
H         6.83383352855010   13.08254129556671    1.25943451131004
H         8.24725277014627   12.75496769876216    0.25999691426693
C         5.65401700717924   10.49625506962222    0.75382072068699
H         5.81767758211406   10.47489936217166   -0.32552591802337
H         5.22939142041438   11.46683471307054    1.00631611222046
H         4.92286395170467    9.72874133227998    0.99885986639776
C         6.87570180551632    7.68446170804771    1.71320592100159
H         5.84247347686837    7.73616338148259    1.37801595774719
H         6.91861315433113    7.14886093050512    2.66080301583282
H         7.44964910440582    7.11807107655545    0.97826569287547
C         5.80696229669793   11.49553325932369    5.90180124980622
H         5.07326531030663   12.08953776027096    6.46374752323927
C         5.48802257965071    9.98243016975375    6.01373749423935
H         5.63319584018766    9.67965734917484    7.05918525866565
C         8.20362227003866   11.25668925451545    5.46714911880898
C         9.52860534769387   11.39895652344647    5.85650793500231
H        10.32322020073906   11.06468227064273    5.20815959739880
C         9.86185579794655   11.95191139883032    7.08449161997189
H        10.90166400428537   12.04660178040542    7.36328008608362
C         8.87637238630505   12.37188543344011    7.95793773977454
H         9.13919199196332   12.79544808335151    8.91599715159222
C         7.54579888820686   12.24725470891145    7.59566649222311
H         6.76258479962806   12.57082535675184    8.26764798917302
C         7.22108836218984   11.70812239056496    6.36415575411625

