173
CSD_code = SEQZIA | q = 0 | S = 0 | Stoichiometry = C75H89MoN3O5 | MND = 6
Mo        5.18952506546640   13.54580124504436    2.18876706254894
O         5.83329178597150   12.09417448319331    3.12720452448519
O         3.71693121652025   13.62792174993238    3.30591145361358
O         4.23356461702059   14.53449988286571    0.95225253371165
O         6.29913585877034   13.06218308688720    0.78376710194071
C         5.53353389036295   10.80067632888323    3.02985580499727
C         6.23022218233650    9.95911278811229    2.14764142272406
C         5.87113979249393    8.62309175558182    2.04533788298178
H         6.42887820883931    8.01234884768461    1.35367729863262
C         4.84136754947423    8.07346723996242    2.79509257858783
C         4.16109076543512    8.92215425730438    3.66323679487565
H         3.35144940822396    8.53795329024435    4.26592521884500
C         4.48093812716636   10.26082814167150    3.79076538948448
C         4.43441756012359    6.60994026845048    2.70375865784843
C         5.27700946773751    5.82497388737254    1.69473070962875
H         5.17241322990432    6.23640743432433    0.69325967252920
H         4.94280152854620    4.78952513817772    1.66945820276875
H         6.32727421029920    5.83208232272030    1.97538945353319
C         2.96470451627075    6.52204630172688    2.26805079059845
H         2.31123843018631    7.01853612207887    2.97945480737833
H         2.65588589423601    5.48150432209266    2.19070155876865
H         2.83155441937512    6.99511101131451    1.29692739590118
C         4.60663438230391    5.95459213680750    4.08095097894109
H         5.64157576965460    6.03441829748374    4.40581303839110
H         4.33813855727494    4.90107470968233    4.03385797195658
H         3.97931969093495    6.43364775067834    4.82711026345874
C         3.67339422706043   11.17105995711182    4.68632140092706
H         3.33960825392750   10.61881822360315    5.56753772884407
H         4.30485469339286   12.00946499633652    4.99690331952445
C         2.57750776338629   12.93969584236680    3.26540459789535
C         2.47615045356373   11.70673920357341    3.93580361724455
C         1.30679995704285   10.97468029936599    3.84727949430208
H         1.26177581433476   10.03255240716522    4.37310292102143
C         0.20982256717672   11.40968712045632    3.10957724224455
C         0.32560485549602   12.62747951772728    2.45494472911708
H        -0.49310676859042   13.01201309172590    1.86814514933093
C         1.47786031051874   13.39712641898236    2.52080338135681
C        -1.04088020117963   10.54524837233912    3.04390241830380
C        -2.15448843720854   11.18030482121519    2.20668745145687
H        -3.02170294064056   10.52280875276859    2.19694944107530
H        -1.83532251136338   11.32963491102290    1.17760138944086
H        -2.46098892506620   12.13489487961291    2.62708170759553
C        -1.57975350789563   10.32680642100581    4.46425904034554
H        -1.80856489975099   11.28346377988403    4.92840287048113
H        -0.85470894945060    9.81179636617178    5.08765740971747
H        -2.48908300334253    9.72981299788995    4.43467704240660
C        -0.68057124635362    9.19269823467901    2.41240431146001
H         0.08527838614757    8.67984417925801    2.98697355276477
H        -0.30526343476718    9.33834507960724    1.40109376358338
H        -1.55903275384320    8.55230320291451    2.36521922422055
C         1.56342311988383   14.69323069726980    1.74436438914191
H         2.31449905944156   15.34259255958904    2.21150393628386
H         0.59240367792316   15.19295209434139    1.76466334026562
C         3.33453280521179   14.36252823041636    0.00164479656566
C         1.96470437463607   14.42787214035530    0.31141313569049
C         1.02615788800207   14.21682985343584   -0.68484238962523
H        -0.01522580347505   14.27954533093726   -0.41335937453422
C         1.39572858232514   13.94368251560920   -1.99777698513565
C         2.75839241197890   13.89058476437276   -2.28668980370174
H         3.08548666547184   13.69266591357261   -3.29729739052791
C         3.72936163306284   14.09053912533543   -1.32144206958728
C         0.38516113415867   13.73121324372277   -3.11718572762165
C        -1.06339293767952   13.82400676291223   -2.63007388026623
H        -1.27302431290336   13.07314178381566   -1.87128659111366
H        -1.73851491047799   13.65309771236176   -3.46621017103187
H        -1.27517300175350   14.80982692711963   -2.22394896313351
C         0.59880585048415   14.81155075972859   -4.18685383167140
H         0.49467655992868   15.80003332235778   -3.74542420720974
H        -0.13815474591696   14.70726319120552   -4.98050958751246
H         1.58840135913274   14.73987002360968   -4.62899379085160
C         0.58654566993043   12.34229375213884   -3.74222804984615
H         1.60416310588268   12.20940723661054   -4.09944417046255
H        -0.08747846081881   12.21251871332089   -4.58627966157366
H         0.37085015240358   11.56156682955609   -3.01442183568703
C         5.20227947531865   14.00882287294746   -1.65394042709705
H         5.35694317579356   14.32794440907173   -2.68717604742199
H         5.75167248723977   14.68048274163889   -0.98256328276415
C         6.28422238098597   12.22305355590335   -0.23785681391790
C         5.74279752005010   12.60716428347323   -1.47845417351416
C         5.70148416283070   11.68534561714981   -2.50999602484624
H         5.28595701229932   12.00551710434398   -3.45482857105737
C         6.17938377524682   10.38403139017536   -2.36865206623267
C         6.71834794758052   10.02690049128267   -1.13768909412027
H         7.11062444515087    9.03520113420557   -0.98118649418134
C         6.78054072451047   10.91732922706359   -0.07884871994541
C         6.11294580620337    9.42980726553992   -3.55366764723173
C         6.68155632547148    8.04585770226823   -3.22903708169008
H         7.73181990722726    8.11082527660338   -2.95648206446932
H         6.60081695803861    7.40590490866352   -4.10546916741564
H         6.13093746808867    7.57479979382305   -2.41772607464339
C         6.92821497618497   10.02086345586405   -4.71245272666476
H         6.51624208201199   10.97033027527435   -5.04219013102353
H         6.93051065704923    9.33729832933984   -5.55899171671291
H         7.95619067992800   10.18720796939452   -4.39885410145538
C         4.65145486532386    9.24990818759659   -3.99186288836516
H         4.07345701078996    8.77566855762956   -3.20007599180323
H         4.60200963159895    8.61416883419687   -4.87335594188349
H         4.18822583634523   10.20208443957659   -4.23684445244526
C         7.33118806323455   10.51394748012956    1.26977482014168
H         7.76976779749996   11.39531804100189    1.75429284190831
H         8.10485262025101    9.75471949552437    1.13534023507696
N         6.17212253692642   14.81341503562176    2.85966108494417
C         7.00340762088653   15.79707705242171    3.20205446576475
C         6.97608638436800   17.00874311836538    2.48763785874935
H         6.24586569123610   17.10429836944396    1.69484132099632
C         7.85180710813441   18.02758135389726    2.79253161932602
H         7.81624455695299   18.95247393785003    2.23441973742457
C         8.77975178608028   17.86818392393323    3.81158662966775
H         9.46930467935922   18.66392303682552    4.05042298672269
C         8.81612415352551   16.68178959292448    4.52576790925524
H         9.53802217829199   16.55701960988664    5.31980567302566
C         7.94508166241027   15.64472633734720    4.24335464797845
C         7.94442165817399   14.38841478992301    5.06141781149062
H         8.96221116956415   14.14366318203141    5.37135981262839
H         7.53697223329793   13.56198191960699    4.46873280365766
C         7.06571281112593   14.59372588478568    6.31076442446934
H         7.43797704388281   15.46444444474424    6.85693884277676
H         6.04488062456106   14.79736622349713    5.97962607093026
C         7.08304509769449   13.39118104714556    7.20357469224783
C         5.97192048305200   12.57389822340898    7.31826483158980
H         5.07176199346443   12.84921705909208    6.78878830720750
C         5.98890661108303   11.43636806483113    8.10758726852798
H         5.10786168861807   10.81649801462877    8.18288796378391
C         7.13450059444192   11.10418768367980    8.80997245159281
H         7.15364581145925   10.22551569447334    9.43833148846791
C         8.25582157788204   11.90467260125629    8.71525932246602
H         9.14220880840703   11.67139020301747    9.28882248492320
C         8.24581242977966   13.04444444157375    7.91104261938212
N         9.32269675471678   13.91012288358758    7.85324290923726
C        10.54392317325678   13.53527519611783    7.84815898466729
H        10.82233401763258   12.47481294564880    7.81192281823263
C        11.64095245155838   14.47031487755165    7.85027505972124
C        11.42090272111615   15.86297573297099    7.87573257868755
O        10.16987941794947   16.34410629350537    7.88852856367827
H         9.55177818033332   15.56372517836102    7.87358868111654
C        12.52570593818004   16.73688460953779    7.88438018104802
C        13.79016748722325   16.17851767229990    7.86143503383740
H        14.64095737479532   16.83687581091769    7.86752867337838
C        14.03641062075186   14.80231521807626    7.83035569437090
C        12.94544521887069   13.96361796715571    7.82586691588444
H        13.06083299377669   12.89164275608528    7.80462299076730
C        12.31425649580617   18.24561052966239    7.92825287210653
C        13.63150523125978   19.02825748363239    7.92214599166420
H        14.24063771980892   18.78758478817534    8.79085672966257
H        13.41144324504714   20.09340777310699    7.95653043587292
H        14.20179754995883   18.83531059173490    7.01598795474094
C        11.55734427300277   18.60614272383692    9.21399534956545
H        10.58568149623890   18.12426403984587    9.23556749054678
H        11.40985809679691   19.68251471432601    9.26972671714259
H        12.12498933057698   18.28830644244262   10.08671007502790
C        11.50151864599790   18.68393682060147    6.70229756714338
H        11.99796343766570   18.36602560293192    5.78720208715096
H        11.40799334491041   19.76782723701130    6.68743496018271
H        10.50563472019023   18.25579733943097    6.72819416608280
C        15.47412503075714   14.30615245258937    7.80606150967536
C        16.17665566662251   14.85764969604544    6.55758660909994
H        17.19949891181722   14.48970324876890    6.50951836273156
H        16.20697582982332   15.94352624628005    6.56570293340084
H        15.65166791200929   14.53833919414653    5.65977609370200
C        16.19662963760944   14.79522290318059    9.06907018769195
H        15.68958144530382   14.42633006207780    9.95826408185839
H        16.22134162391465   15.88023357496454    9.11732829445687
H        17.22188048190906   14.43102723649010    9.07971050606223
C        15.56418383729567   12.77816199718215    7.76698573773505
H        15.08526474505677   12.38161651186963    6.87477189928125
H        15.10230814850449   12.33666182149521    8.64706964519243
H        16.60951243179464   12.47621526722483    7.74970170154752
N         3.90366434742292   11.86303940168156    1.22977364636078
C         3.40616637193091   11.40992921458239    0.30140852687439
C         2.77042336280817   10.79834385921598   -0.81352997369875
H         2.11143270057263   11.52638337787641   -1.29048996604768
H         2.19523404049968    9.93714623926061   -0.47489257339176
H         3.53486504571938   10.48247541926347   -1.52547292204157

