116
CSD_code = SERCOI | q = 0 | S = 0 | Stoichiometry = C57H41Cl4N9O4Zn | MND = 5
Zn        4.82953828201231   18.05379947931180    8.81246539009435
N         4.93091314516044   16.99515820109464   10.54132236869741
N         3.40583089674272   16.76699815666323    8.17376244411439
N         4.97075229448540   18.83557079961546    6.94715787841663
N         6.46905737805406   19.11407098959688    9.34647227540552
C         5.91575060471565   17.07597240984660   11.46700499436834
C         5.63620859685235   16.19305062211162   12.56563320659799
C         4.44663093190402   15.60514772933263   12.29448518675159
C         4.03857121864238   16.08142663902767   10.99892651651239
C         2.94582813770800   15.59688401822701   10.27538376298640
C         2.68202847135316   15.91450493581779    8.94228158674741
C         1.66148600095130   15.28401892664099    8.14839274624928
C         1.80793840782089   15.75226541109223    6.88735098842220
C         2.90458300062174   16.68506604348932    6.91873649974330
C         3.36488634607155   17.39166240601774    5.80243876461328
C         4.31133604402124   18.41537484973078    5.83890058248159
C         4.71859101412887   19.19660899511775    4.70102106700689
C         5.60337968314362   20.11347190323082    5.15707493201087
C         5.76307480302767   19.86795890939267    6.56608691714522
C         6.67731213250178   20.54464098013273    7.37808364252121
C         7.01475718594942   20.16101329470015    8.67882036409380
C         8.10872389465056   20.70814550444263    9.43988638883448
C         8.26672640554304   19.90668468168755   10.51945279400961
C         7.22469759004044   18.91931413894151   10.45262141532944
C         7.04469766853798   17.89572955340233   11.38522270551926
C         2.04004742245869   14.62301439437739   10.93395731686237
C         0.76287428373507   15.01688678237808   11.30752108375511
C        -0.10108328078089   14.12895002723401   11.92391255309640
C         0.30954718755909   12.82929315646275   12.16502200118152
C         1.57402177391945   12.41213085099046   11.79001449285912
C         2.44552528759521   13.30250627397889   11.17404925871794
N         3.73038564278388   12.93666123571454   10.75840371646276
C         4.40622729680087   11.79147129964304   10.99296965081455
O         3.98303147960041   10.80703143830939   11.55417544201345
C         5.82638596175238   11.81080407476861   10.42318737353372
Cl        6.65274947649242   13.36518601744977   10.71601230835807
C         2.82027352679909   16.98313886984453    4.48623089557047
C         1.99613302354246   17.82025870102656    3.74855127553424
C         1.48469490985914   17.41329926957786    2.52842205909156
C         1.80065163515934   16.15952537019920    2.03438149538014
C         2.62729390549640   15.31097282132556    2.74967496169044
C         3.13887079794988   15.71409555088481    3.97619498434224
N         3.99508091998031   14.90704413467051    4.73896634798189
C         4.26943361906670   13.59300648496617    4.59963339567045
O         3.89363506576718   12.86795627750173    3.70742728347795
C         5.19694722126923   13.05415108361950    5.69452633269599
Cl        4.72890352459100   13.60975321767181    7.32262002802620
C         7.38924511342326   21.69831942979831    6.77498685169031
C         6.69064257165261   22.87108554431427    6.52109895709309
C         7.32209718162139   23.96877743530551    5.96403623335057
C         8.66739713912877   23.89643245869636    5.64671669303441
C         9.37977000023479   22.73341693166911    5.87721141745739
C         8.74967902003035   21.62998143258674    6.44063019892524
N         9.41763591049424   20.42255827544878    6.67592507284658
C        10.74138056736777   20.16618926978362    6.63330140927535
O        11.61162454704754   20.92752792946531    6.27494445622677
C        11.11455793416221   18.73984451329334    7.04747266909032
Cl        9.96918138606071   17.98125652655845    8.18128410382412
C         8.24949319332489   17.45173688802491   12.12981374814797
C         8.67846149588717   17.94374161205209   13.34768831468702
C         9.84787805753100   17.46597858330048   13.91979881449488
C        10.59207214491757   16.49877177026363   13.26752635389765
C        10.17695641940135   15.99122018332769   12.04745692947039
C         9.00456517375419   16.46008638774596   11.47465487053198
N         8.50893396273524   15.99563381016228   10.25035162418144
C         9.08509355917541   15.24119401216764    9.29674564861645
O        10.17555313845424   14.71945984479066    9.34226059759815
C         8.18661311522034   15.01537918289474    8.07059962116221
Cl        6.95110475923151   16.28227884246139    7.76067750869702
N         3.41344871153060   19.54930896476649    9.55851590737061
C         3.54529871873318   20.82865477824868    9.23703068263766
C         2.67912293555632   21.81286834889938    9.68405520604553
C         1.62467433063478   21.44724290794632   10.50530327269687
C         1.48593793430098   20.11047185829551   10.84239358706164
C         2.40472432803688   19.20096549844846   10.34489718595180
H         4.23966484262490   13.67885519970091   10.28979413345760
H         4.34991750683870   15.36660198388759    5.57195440786728
H         8.82662902653055   19.68223771599496    7.04214037385976
H         7.59198141061059   16.36545023801786   10.02180598570792
H         6.25831490416401   16.07498423706446   13.43146507886993
H         3.90273382502148   14.90294221814257   12.89636977714734
H         0.95038722711388   14.56847579573387    8.51292226163217
H         1.22708591523324   15.50898730289795    6.01859418468676
H         4.36919082778094   19.05577983089238    3.69693055161492
H         6.12275193234979   20.86909794734389    4.60008503137241
H         8.68513769857795   21.57098050969844    9.16712737521074
H         8.99435534513010   19.97973211783736   11.30400369505329
H         0.45137043641349   16.03327885459256   11.11194543372234
H        -1.08989587871666   14.45160665067111   12.21270353055155
H        -0.35862565336943   12.13027280261481   12.64434161856157
H         1.89458022552736   11.40009402296164   11.97145200187638
H         6.41119523938344   11.02058086637171   10.89225431973034
H         5.79042338325250   11.65705850781547    9.34342165284949
H         1.74672588814313   18.79201817509705    4.14930180088909
H         0.83919050788761   18.07278198535433    1.96835923609364
H         1.40376795982380   15.83591598792717    1.08433208901781
H         2.87389409390083   14.33445248819928    2.36817396887900
H         5.16008606314730   11.96540120723121    5.68251051181174
H         6.21836353710765   13.39535025724847    5.51607653456959
H         5.64007079707345   22.91708527390093    6.77103331095432
H         6.76511687208875   24.87460805284190    5.77833009415200
H         9.16830791498957   24.74744484478805    5.21119561375938
H        10.42544340703167   22.67200137898770    5.62690551753146
H        12.09621007352121   18.75987763654621    7.52084412954658
H        11.16115069449771   18.11127261624744    6.15600205691079
H         8.09463181980838   18.70400661856205   13.84619360578157
H        10.17705771082425   17.85410838757029   14.87191577416282
H        11.50545269479864   16.13165354969055   13.71049045626306
H        10.75334877432110   15.24082389491023   11.53172329086461
H         8.82275948239806   14.94355989944373    7.18955827619317
H         7.65136509547943   14.07544553574829    8.21201566223015
H         4.38112787058506   21.07185871744935    8.59838281524345
H         2.82950509082016   22.84149463356298    9.39598309673309
H         0.92858234517594   22.18601207040042   10.87403670702071
H         0.68184722908561   19.77764128345883   11.47971320786694
H         2.33272169729032   18.15060857082216   10.58479321801583

