73
CSD_code = SERGUT | q = 0 | S = 0 | Stoichiometry = C23H33ClN6O7P2Ru | MND = 6
Ru        0.01316595612556    3.74547866081893   17.69457605048186
Cl       -2.19996609593791    3.78474999911402   18.46112931382672
P        -0.70893627037063    3.09217678668299   15.68248623738137
P        -0.64184384210080    5.83031180378136   17.23410637164109
O         0.29114615612005    1.71108254382932   18.27022309926858
O         0.06425410082919    1.78597702556975   15.09232048160690
O        -0.40199083798768    4.13903197707614   14.45352709858350
O        -2.24432538382002    2.71992610030003   15.38084974389021
O         0.38765672071115    6.87165904096248   16.47993048244966
O        -1.89402955815892    5.91289472435158   16.21477061918446
O        -1.13184156965441    6.79303129964832   18.44748021101349
N         0.67300677204805    4.01131308421690   19.55862163197961
N         1.70943482718673    3.29489195469368   20.00618630546218
N         1.92031096429195    3.79155655569458   17.14747009614667
N         2.85974874605779    3.27102722605485   17.94013665129144
N         3.65287981657596    1.97624509989388   19.73373921092931
N         4.46051287198416    2.82509250737525   20.38518284341700
C         2.47231349154132    2.46829749645341   19.08992327856051
C         1.51754688367852    1.30049559674867   18.56680878846197
H         2.06194240788656    0.84603606881207   17.70139149708685
H         1.48253666590962    0.55414526904105   19.38997594995202
C         0.10486918294264    4.57796374527145   20.60597057808254
H        -0.76130265644778    5.19973800803000   20.47679218345246
C         0.78851588749818    4.21006393482420   21.76940246404140
H         0.56533822821440    4.50157759386688   22.77449125881182
C         1.80057743646122    3.38156752013022   21.35293578355020
H         2.56463953404173    2.87999020957865   21.90874322874226
C         4.09467980558757    3.46699098886010   17.41602422300884
H         4.98640432647211    3.13015429374344   17.90182376013315
C         3.92173857254217    4.16405436585224   16.24601123051990
H         4.68674629806463    4.49672254179289   15.57532223836470
C         2.54039969914967    4.34422300077314   16.11888596157249
H         1.97626762456205    4.84863814406020   15.35873214093565
C        -0.43724100209258    1.26306486951076   13.86810538325960
H        -0.99020822262738    0.34221708886163   14.08608107406803
H         0.43105705558006    1.01964454129570   13.24334033891277
C        -2.59213949780573    2.46363018201676   14.02421009018835
H        -3.19151226476403    3.30479977435802   13.65313037005302
H        -3.21078147601814    1.56051387632277   14.02367098414561
C        -0.59994983130995    3.62296909023636   13.14544113806154
H         0.38016759237025    3.50539887317885   12.66290177564999
H        -1.17825672980800    4.36662160675615   12.58302775879926
C        -1.34179548816739    2.27784796666427   13.15779452892755
C        -1.67789976791302    1.86536663812141   11.71927513983871
H        -2.38486536439383    2.59324106265645   11.31417097594098
H        -0.76325647315849    1.92949513872289   11.12454075470470
C        -2.26432515870111    0.46563035422787   11.56635546284213
H        -1.55601880796091   -0.29292681880510   11.88592575365152
H        -2.50191669019523    0.28730947623075   10.52047107533272
H        -3.17794396102541    0.35499378334925   12.14262683159068
C        -0.20721345303968    8.05295125397708   15.95801560459839
H        -0.29010086961705    7.94669160124624   14.86993100772418
H         0.47115742988068    8.88374440631398   16.18622568205642
C        -2.52148493453391    7.18578656230742   16.09302160591654
H        -3.44830144499861    7.18227879148660   16.67968309886407
H        -2.76946016717761    7.30959890275206   15.03385172945308
C        -1.44464687989410    8.13411185862764   18.09519989644392
H        -0.65071462645309    8.79048915321722   18.47564134280421
H        -2.38406815507955    8.38839862499111   18.59903019551586
C        -1.58935809130504    8.30385222176114   16.57653310205666
C        -2.13473876249638    9.70316425595497   16.26618874484006
H        -3.15164543752662    9.76405819504590   16.66013307226827
H        -1.52787699797319   10.43252839366934   16.80810799761951
C        -2.15006084776097   10.08113843266440   14.78850729851196
H        -1.14330945634890   10.11531086448125   14.38223790986314
H        -2.59486031944910   11.06650906077669   14.67370944989871
H        -2.73798001834953    9.37724344251876   14.20677129922567
C         5.47770715782701    2.11124530214976   20.80843581851926
H         6.26240488127557    2.57365090111657   21.37296537816269
C         5.34794175337208    0.76867956321324   20.41718935698020
H         6.02031049091443   -0.03940195136852   20.61649371450896
C         4.16654548595299    0.72073885790304   19.72361817837514
H         3.67414258862802   -0.09389136617273   19.23736806609876

