61
CSD_code = SERJUU | q = 1 | S = 0 | Stoichiometry = C22H32ClN3OPPd(1+) | MND = 4
Pd       16.00960263767756    7.96780850520800    6.73084676986928
P        15.64225419679572    5.79318783059462    6.28626461920715
Cl       18.10930458361641    7.25971016569047    7.23337033350334
N        16.60647885255334    9.99340425560488    7.19116124913153
H        15.84207237021676   10.65963737563433    7.06437340455778
O        15.32790488024791    7.53912479208497    0.30478418712338
N        13.38159856109981    8.56480780116964    5.39450220208928
H        12.36829601938088    8.65464684137892    5.42637986964984
N        13.44038707686035    8.59771023710302    7.66326467329616
C        14.07856381359326    8.46989041814058    6.52273260984943
C        13.92044444395742    8.34147210518305    4.11023125276923
C        13.11696845633888    7.74956765300346    3.13689088948414
C        13.61921021132316    7.49402646673245    1.88307737128263
C        14.93709772439880    7.83616229603115    1.55900709693720
C        15.72723387107526    8.45664416140052    2.52426276820613
C        15.22361941306340    8.70242988879957    3.79143539611156
C        16.41960889936098    5.36963406807612    4.70182818031674
C        16.14532674303890    4.16973667026666    4.05232191382453
C        16.77399862658336    3.87238472389873    2.85737375716847
C        17.68960403564009    4.75783966455095    2.31139171367216
C        17.96932747804756    5.94995147875443    2.95816564267825
C        17.32707000874553    6.26283569923799    4.14255667907043
C        16.27509473492666    4.55767547755403    7.47121105059240
C        13.89774092106994    5.24902339822395    6.09622939277841
C        16.63068089520250    7.88460445900931   -0.11319791283057
C        17.84491795584703   10.45253989462762    6.50339547940206
C        18.57974624663158   10.54548018310520    7.84606525307905
C        17.25888293271780   10.15391042214505    8.51995354554807
C        13.94371670231257    8.39113049481102    9.01241206283460
C        12.49105407461027    8.39578226177516    9.51988668846849
C        12.04116479101711    8.68922418367001    8.07988474929767
H        12.09420897909056    7.48820125613779    3.36811890928867
H        13.00960688275221    7.03194733551334    1.12421150024495
H        16.73432161166972    8.76418820252894    2.29623369299830
H        15.84390926952798    9.23078616951813    4.51803757148808
H        15.44664792206158    3.46338518680469    4.47633435154800
H        16.55770019944379    2.94199945752459    2.35485588843602
H        18.18858534927146    4.51197930634123    1.38638084383492
H        18.69964747123870    6.63112844722301    2.54644636938233
H        17.54603816639382    7.19545830481562    4.65893044879960
H        17.34271726065121    4.70942867709904    7.61869138977458
H        16.09778949942499    3.55755923989084    7.07543285674497
H        15.76353537510483    4.67038205467328    8.42787293484397
H        13.45875205134997    5.71357400430496    5.21569640983562
H        13.32970610899227    5.53418561148401    6.98149031178557
H        13.85082358902394    4.16715323810981    5.98918935494615
H        16.70117755261066    7.55673465699334   -1.14841858731013
H        17.38811024676857    7.36952843023868    0.48368134187132
H        16.79210450355081    8.96532349320076   -0.06594173043946
H        17.71856790774831   11.40135657688391    5.97772521895100
H        18.24746608594909    9.70106831390090    5.81797453248657
H        19.36547753289720    9.80545436491546    7.96469921670237
H        18.96012942188656   11.52991502995493    8.10258643797584
H        17.29619642914975    9.21584129682404    9.08236403680122
H        16.80570708140022   10.93732784757906    9.13166231306588
H        14.50506218915684    7.44970714088916    9.12912803710642
H        14.55131138832471    9.22608047511496    9.37630342362346
H        12.26211719824338    9.17592154501770   10.23879693903301
H        12.14896289553959    7.44046747133898    9.90627270237114
H        11.60864202483364    9.67944651987869    7.92329717304581
H        11.39610564799524    7.93478647185195    7.62378322179925

