40
CSD_code = SERKOP | q = 0 | S = 0 | Stoichiometry = C16H19ClNO2Rh | MND = 8
Rh        2.68410300462586    2.93888218432255    1.46097570855495
Cl        0.48752378859620    2.41297899213823    1.05166626635585
O         2.54663796592234    4.55786779315645    0.15339049618724
O         1.75929385465265    6.55015073059081   -0.10941999626596
N         1.94675093390233    5.57426129525292    0.59232571615391
C         1.83748540067516    4.32828083121355    2.60454442997441
C         1.53993407319102    5.52059712740176    1.92246367388358
C         0.87150742456521    6.59425189041939    2.51582875302560
H         0.66364980480710    7.47233661278557    1.92361898143976
C         0.49234697182014    6.48201074654694    3.83148737724688
H        -0.02571351375207    7.29245915667600    4.32024451662199
C         0.76221079500048    5.30589221160663    4.53089387469201
H         0.44876850302360    5.22058524448598    5.56130894898266
C         1.40784672361645    4.24256821682098    3.92785537727863
H         1.56574987891111    3.33165860053651    4.48798719273860
C         4.25886468191560    2.12832056714293    2.77116204229102
C         3.26418243187853    1.14415934596702    2.45490552209094
C         3.38642463897760    0.82089873494571    1.03650425567867
C         4.32469441182425    1.69295295931629    0.47659773657112
C         4.83618808412905    2.54692943948405    1.53747931473850
C         4.69658559528672    2.55293719364290    4.13762347590117
C         2.49538576273505    0.30240220309786    3.42465749267530
C         2.65632552482377   -0.30648043648101    0.38374280245913
C         4.83835607192533    1.72075988812053   -0.92759026930630
C         5.98805339636221    3.48556814782274    1.37189475088493
H         4.98567227201061    3.60128767244775    4.15596624474212
H         5.55984152917327    1.95524485526001    4.43581580913371
H         3.90945829385257    2.40085727673982    4.87103818914686
H         1.48990076959450    0.11690379257528    3.05255391509004
H         2.42232583058479    0.78353790948819    4.39663171427310
H         2.99757074205677   -0.65824706892115    3.55204967757519
H         1.58059684765363   -0.18893953853171    0.51173000646207
H         2.95286534197627   -1.24944050957010    0.84542774926043
H         2.87201084350008   -0.35234919760050   -0.68031995160561
H         4.81108171992654    2.73276816267990   -1.32882463934820
H         4.24376064803180    1.08209376870799   -1.57508483532603
H         5.87330877395747    1.37468226470810   -0.94735725477108
H         5.91147567658401    4.03312850576340    0.43495488656226
H         6.92010241609156    2.91716868674071    1.35657166370859
H         6.03627208558839    4.19967374249623    2.19069838424387

