59
CSD_code = SERMEH | q = 0 | S = 0 | Stoichiometry = C19H31N3NiO5 | MND = 6
Ni       -0.11314809145100    1.98421988496585    3.69745019476068
O         1.21005597567443    0.49263732333829    3.13367748666530
C         1.51184054581090   -1.81973618090902    2.87082848281576
C         0.73269668395081   -0.55756566453477    2.63571962086058
C        -0.44576885022664   -0.56521385185053    1.84037653289050
C        -1.05485837446832    0.66508573465002    1.48795727813677
N        -0.86998879967820    1.84625595726099    1.99158101554659
C        -1.47384617893184    2.96570180343148    1.30461076166259
C        -2.36420610549506    3.81306348390852    2.21598249506945
C        -1.56531755169651    4.66086671514558    3.20225403033517
N        -1.01260739753003    3.91213912986302    4.33825004435860
C        -0.02088361184656    4.77866424028302    4.99531413559364
C         0.69390709343269    4.15398544066995    6.19071716481012
C         1.48315849543227    2.90171972821600    5.79614220651989
N         0.60537078120358    1.83643367403321    5.37188963889623
C         0.52783936061076    0.76389998599271    6.09830154355602
C        -0.32586826464778   -0.35430662690366    5.96735709145908
C        -1.46509226864566   -0.28122545929646    5.10244211447617
C        -2.44003520790176   -1.42483074023504    5.03408415957370
O        -1.72285795374048    0.72017685066747    4.40581013586207
C        -1.01554939664850   -1.80751262172541    1.33921760084477
C        -2.42645604084573   -1.73836884473217    0.77101442103147
O        -0.44975554472976   -2.88758869672960    1.38401543251102
C        -2.09854651987137    3.61532375288059    5.27682477483222
C        -0.04141215172936   -1.54950482403959    6.74613932543483
C         1.33008158519070   -1.64401525784206    7.40662322624261
O        -0.81238486474775   -2.48756805186384    6.87411772167465
O         1.76640768761643    3.22386290634075    2.64267912360627
H         1.80223290626748   -2.27470822776856    1.92758816261320
H         0.88914245472809   -2.54242295596945    3.39325297002746
H         2.39130564041673   -1.58766396116646    3.46830888476361
H        -1.72015618570249    0.61181547641807    0.62350879392845
H        -0.68260185034265    3.60689760656543    0.89182245066163
H        -2.08011330757369    2.60640323534835    0.46018417902938
H        -2.95165369348945    4.48624364938848    1.58806528540500
H        -3.05204344925581    3.15143552772603    2.74143654369486
H        -2.21039108369504    5.47021824863835    3.58307655731254
H        -0.73501895915974    5.12331499668332    2.66116260864448
H         0.73724036147381    5.03477910859401    4.25122095809622
H        -0.51526620357779    5.70716894063910    5.32781163019093
H         1.39203857174900    4.89627160631104    6.58302620609207
H        -0.01016432150758    3.90890651362718    6.98687152948868
H         2.09216428108916    2.57928313958659    6.65224620707002
H         2.15442893350813    3.16481841940672    4.97290975659577
H         1.19857205552688    0.73296052986266    6.95871912046966
H        -2.84706882092927   -1.64121880114343    6.01796586759720
H        -1.93465047645247   -2.32518892336711    4.69279779647643
H        -3.23954046590169   -1.16483392554733    4.34311743777230
H        -3.07897022780832   -1.14923959440290    1.40940562101253
H        -2.81072036007419   -2.75268956432272    0.69371324404870
H        -2.41187636280772   -1.30509005658164   -0.22811269080744
H        -1.72989293027537    3.02619683210478    6.11127325100748
H        -2.86451637238965    3.02235495653305    4.78605257540501
H        -2.54621720842824    4.54490844415703    5.65615951650065
H         2.12300669051714   -1.37719598717895    6.71310879102027
H         1.47135183846707   -2.66953234680665    7.73997466072402
H         1.37916100185443   -0.99496878176596    8.27961296750859
H         1.50877300719152    3.22979667432309    1.71710055119405
H         2.24376950248960    2.39387942912404    2.77394080643019

