54
CSD_code = SERPOW | q = 0 | S = 0 | Stoichiometry = C21H25O6PW | MND = 6
C         6.53814312610373    4.41092061031411    5.30114675134095
C         6.02121408800218    4.46734722023033    6.72208898983463
H         5.61505830145845    3.49106133361824    7.00115605845004
H         5.21196063729549    5.19962470125081    6.79775453257738
C         7.17417035716228    4.84063173304209    7.65297270511673
H         6.81630761286915    4.89119263139937    8.68204468330262
H         7.54406898684276    5.83226700833010    7.37651325901778
C         8.30866695026084    3.82690784572416    7.53875156327829
H         9.13541073506245    4.12066316619431    8.18773686616436
H         7.95479245669115    2.84824302692910    7.87018397577414
C         8.79262253393673    3.72712595445224    6.09505808539836
H         9.56872989188862    2.96413422968592    6.01216012912428
H         9.22536674718567    4.68295191262860    5.79008492894160
C         7.63040617935505    3.37819270064096    5.16620279904474
H         7.96732867110329    3.27586325663737    4.13965039598832
H         7.20807762443297    2.41369414126193    5.46744058877038
C         7.29340701861941    6.10566591653789    2.79208465128836
C         8.08857244259467    7.36025780375283    3.04466269649084
C         7.64191507919750    8.34086893092653    2.23494924846194
C         6.53226486896947    7.83530252668590    1.42755455810403
C         6.29869566154564    6.54450595723000    1.74141033986735
C         8.14518048209552    4.94195447617993    2.30465709346702
H         8.96864841375310    4.74232160742083    2.98601097748992
H         8.56575190723128    5.20950647126823    1.33526239702451
H         7.53795033236426    4.04810730860809    2.17640803658875
C         9.18433451040564    7.38508193277172    4.05283165396924
H        10.08001822627840    6.89120306008417    3.67157789960300
H         8.86606548400902    6.86392122459971    4.95873013360691
H         9.44766636946740    8.40531590627771    4.31933246603559
C         8.17321089091405    9.72290584618170    2.07064617763181
H         8.61931945798425    9.83112864452160    1.08177298693201
H         8.93073808175260    9.94701072624983    2.81596701134534
H         7.37158808980474   10.45466324100755    2.15559799546146
C         5.85469670442591    8.67789273320930    0.40236776381837
H         6.56271053720689    8.95586548036171   -0.37834891622554
H         5.47817184626671    9.59552987763167    0.85289458562959
H         5.02435410914720    8.14961471924898   -0.05664438386508
C         5.31739730044913    5.58856443494845    1.15790423978760
H         4.51170604136292    6.11421595085822    0.65178724122838
H         4.88786338385304    4.96352886272631    1.94104887971403
H         5.80393474962271    4.93427787798101    0.43204109554254
C         3.61740058860094    9.28169777842497    5.55970389249138
C         4.05392442577497    7.94762036224670    3.18915358039080
C         3.34313331406907    6.49284183665318    5.38545001503600
C         5.41015770898868    7.75266829388298    6.93880908764028
C         6.26744969804784    9.15418059357006    4.80043868928162
O         5.52092366158996    4.43235559505983    4.27199006584493
O         2.92071537685993   10.13646662187357    5.86503069314387
O         3.43705197803725    8.07662712411537    2.23780013589649
O         2.47712780272861    5.78155026508199    5.60072658470428
O         5.68261368377540    7.83336166133024    8.04720618008072
O         7.02606951078952   10.00717350631979    4.85020547776313
P         6.24459592306529    5.89984946943679    4.32844804282195
W         4.81494943870441    7.79877390239275    5.03618441377734

