51
CSD_code = SERPUC | q = 0 | S = 0 | Stoichiometry = C20H23O6PW | MND = 6
C         5.37609926135080   21.50882234226891    1.01908126270251
C         4.77883808896009   20.37084520354445    0.20364392504813
H         4.01392022314901   20.78534828687438   -0.45712675792516
H         4.30426090286441   19.61552612996454    0.83363464317626
C         5.95147247597351   19.82936912122834   -0.60787465152671
H         6.54040549758927   19.13991383413395   -0.00061606866286
H         5.62863123403597   19.30945663141664   -1.50745694281268
C         6.76237771257014   21.08684273975768   -0.91190578453857
H         6.27154645879547   21.65623625984434   -1.70184512782024
H         7.78152672246866   20.86691176350299   -1.22511801245107
C         6.71946688127653   21.87260246594066    0.40254204970550
H         7.53560701239273   21.54702683662076    1.05056695636121
H         6.80541080345436   22.94476323750801    0.24043862294462
C         5.90218342896065   22.89345600585394    3.71207430123682
C         4.88697271068209   23.66901838045068    4.51803602987568
C         4.95394397055559   23.27063091425966    5.80511877531024
C         5.98631089973612   22.24467151656527    5.94423541714626
C         6.54316604884485   22.00399558582464    4.73965908724184
C         6.85783457631908   23.79681214798324    2.94777936595137
H         7.23520089661209   24.55792716881077    3.62964467037067
H         6.33962390991490   24.29313023713437    2.13017498391697
H         7.70516124312096   23.24123554017444    2.55738965080692
C         4.05061379719175   24.72723256084792    3.88703613734809
H         3.67428626769781   24.38441525723360    2.92227289407618
H         4.64092010696971   25.62935183499950    3.71624066810349
H         3.20486556303136   24.98986005054136    4.51698661487254
C         4.16620117405475   23.76342993635145    6.97010751946529
H         3.44838197637112   24.52034495756198    6.66828894268701
H         4.83156613874644   24.19302083154559    7.71847365728756
H         3.62642074141620   22.93924275155266    7.43629043505544
C         6.36075867728210   21.66523401548810    7.26465242941780
H         5.47535270628266   21.36518695531610    7.82121864475769
H         6.88915658897096   22.41322789853671    7.85680950579113
H         7.00961227819713   20.80195793663348    7.14644982745684
C         7.60785016303369   21.03343873663246    4.36101475510382
H         7.68961870710830   20.23816035808191    5.09792916753019
H         8.57925934437659   21.52542286819796    4.28383813179220
H         7.37290855503631   20.58330322165381    3.39358843719820
C         1.60626619873993   19.28887378233462    4.56461197912750
C         3.79291288947869   18.66662592140338    3.02790572056049
C         1.93794155866645   20.70731298277577    2.14582702359388
C         2.24613835931110   21.99184260853826    4.61119891321838
C         4.15426569342744   19.89238804390379    5.37025964350394
O         4.44318235088895   22.56629448397757    1.33781813577313
O         0.77094017628586   18.65687270212505    5.02405170045012
O         4.17153637756373   17.63217608881108    2.71707507937126
O         1.28534652899104   20.86845593295810    1.22419424736103
O         1.67933319382100   22.84714620333292    5.10918665039033
O         4.68376245116520   19.41975143504648    6.26526255279835
P         4.81170675584525   21.75289863867461    2.70814579145863
W         3.05843372041887   20.36838865530581    3.76688839838884

