74
CSD_code = SERPAH | q = 0 | S = 0 | Stoichiometry = C23H42ClF4NP2Pd | MND = 4
Pd        3.23677948955700   -0.04728212890285    3.28419817972210
Cl        2.16004117560031   -2.02621609440835    2.92240983350386
P         5.05461438229896   -0.87311553705891    2.12206052769956
P         1.23394130386067    0.58769138439121    4.25604446550702
F         3.91237022878784    3.01791323300600    1.82549510435835
F         5.40568897578488    4.97709363449423    3.07586103296573
F         6.04762715943672    2.43450465747912    6.73483152941214
F         4.57049380252885    0.31652848999698    5.61386043288509
N         5.69235808608409    3.67385497765480    4.88583902679048
C         5.34811482483716   -2.65297890023989    2.58478653306479
H         4.43641005898789   -3.13913948872505    2.21400360362281
C         5.34006986654672   -2.79714928974974    4.10817158231959
H         5.12012735922723   -3.82736089609405    4.38259579534640
H         4.56026406643929   -2.15877185820639    4.54281182335354
H         6.29637695152487   -2.52630920583958    4.54718574567844
C         6.55237893552390   -3.33324825510563    1.94657616130468
H         7.48704326945331   -2.95182839212657    2.35019323940732
H         6.55301270623556   -3.20480640004390    0.86594851025757
H         6.51274628700358   -4.40116483918343    2.15765679871121
C         4.72174589188931   -0.87912133598512    0.28995340063403
H         5.64979104348564   -1.14163407937195   -0.22959159887916
C         3.63643350325335   -1.87131223816026   -0.11425234980189
H         2.72717726656193   -1.70573267606732    0.46158057254482
H         3.95601367623609   -2.89980305870951    0.03608534618694
H         3.40116021211361   -1.74297511399554   -1.16983765444829
C         4.29473280415008    0.54112191783316   -0.07907512997296
H         3.99826212178010    0.59480646797075   -1.12504885993636
H         5.09512246025103    1.26016166989279    0.08386037630775
H         3.43812102529906    0.83818402861443    0.53693206303124
C         6.66769494992949    0.08632748260226    2.22579943634121
H         6.33921270388370    1.13436647120540    2.19010631318692
C         7.66999668130712   -0.12031313644263    1.09218610308984
H         8.57686111032903    0.43631105523223    1.32641263487807
H         7.29277859245221    0.25457446643055    0.14456228563487
H         7.94075812225544   -1.16517719124672    0.97465951974400
C         7.34752279386485   -0.14040557900134    3.57581297761830
H         7.90677066242445   -1.07279655782184    3.57373719300398
H         6.62246674764130   -0.17721896322596    4.38494774325885
H         8.04720344948476    0.66820077265569    3.78366851032912
C         1.23000128303646    2.31580978620927    5.00148567826693
H         2.19864788738897    2.36138507151215    5.52113212066396
C         1.24970410228242    3.35776283352663    3.88349461956351
H         0.24240388615583    3.55866924480855    3.52736034052103
H         1.84878973385274    3.01684526462229    3.04198526060812
H         1.66868100065654    4.29559346063066    4.24574682805563
C         0.14746571809213    2.65906947309090    6.02222019710846
H         0.21285182585467    3.72243575673193    6.25024177966544
H         0.28544224097457    2.11911433773713    6.95568295518465
H        -0.84968020769614    2.45956406786630    5.64053503339207
C         0.63862447100696   -0.46431006028849    5.68168695010481
H        -0.02086480727297    0.16418063713132    6.28892896989012
C        -0.13556060217058   -1.72283056355774    5.30058847570978
H         0.44671442947264   -2.35688279169283    4.63796222105684
H        -1.08190517066333   -1.48587592143890    4.82078316105895
H        -0.35310789224823   -2.28712433470126    6.20661885482960
C         1.88336269936853   -0.82793360117587    6.49006160687104
H         1.62273930184139   -1.44994023517177    7.34454495722493
H         2.38616481602062    0.06543297571810    6.85966709356716
H         2.57933502270444   -1.38883217872726    5.85810009026995
C        -0.09992705227661    0.44218144266475    2.96250052267868
H        -0.20931485234580   -0.64671348170165    2.87300193868751
C         0.41539542155336    0.94894343144570    1.61481640285014
H        -0.20099871028730    0.55555107513707    0.80804680772484
H         1.44620837387599    0.59801523053309    1.45907586920492
H         0.40016093067830    2.03416904214539    1.55459949285122
C        -1.45369468464031    1.04276397124302    3.32144869870676
H        -1.41957777175559    2.12916287805974    3.32107694742175
H        -1.79320153881813    0.70237756804961    4.29745284688073
H        -2.19171746463407    0.73414185530585    2.58192341493142
C         4.17945155272756    1.61552277339955    3.71097172536706
C         4.42075896332115    2.82331570559314    3.06623118510950
C         5.17123704023012    3.81192482774942    3.68607112153368
C         5.49548776753640    2.53811504032010    5.52244664673128
C         4.75863753803693    1.50831592349788    4.96808037680737

