79
CSD_code = SERPUB | q = 0 | S = 0 | Stoichiometry = C31H38CuF6N3 | MND = 3
Cu        7.54154514076486    5.06834495588335    8.33593420417375
F         4.59702340301489    1.52215648524966    7.11893452483894
F         6.15534650417677    0.49015395715229    8.17639349140527
F         4.33248375264773    0.99774987117018    9.17484669774758
F         4.39459603540374    3.88662743976156   12.31588381895562
F         6.16837663043926    4.95332318234242   12.84657833265910
F         4.54059271505026    5.97290395230522   11.87623237315965
N         6.70965357758704    3.35096327698419    7.87920212271638
N         6.71372900688843    5.37138815299768   10.01424899643492
N         8.71392941346217    5.65048579901055    7.05427670230110
C         5.23461249307039    1.46182925183662    8.30023271475716
C         5.85549677485296    2.80113962173761    8.69841907389445
C         5.44562204188225    3.31756974092216    9.92822279768130
H         4.73279686364717    2.73091456587853   10.48191197002819
C         5.86198721075170    4.51452393209801   10.51542099539430
C         5.24402975090193    4.82815267140368   11.87969493517234
C         7.11835757708282    2.81462216940471    6.64624957260063
C         6.46208506065618    3.21368387491169    5.47198900977454
C         6.96040253824685    2.77997489880382    4.25313174287273
H         6.46498597203538    3.07456709401792    3.34080774878094
C         8.08555264662771    1.97848105143613    4.18592855610497
H         8.45622216813710    1.64342372690752    3.22776217558001
C         8.73210190289091    1.60382904454604    5.34962637111335
H         9.61399687019224    0.98498440176444    5.28917040024553
C         8.26884649217830    2.01354925427080    6.59072853038385
C         5.26404534664992    4.13495691305675    5.51695884287703
H         4.93740208449029    4.23440414845327    6.55642521670535
C         4.09022221586102    3.59176227937877    4.70049066265650
H         3.21139989479018    4.21152509448210    4.86347385955541
H         3.85647561918876    2.57458275276274    5.00068960059749
H         4.31477458641010    3.59743064079576    3.63699297413863
C         5.66059244141135    5.52741334682119    5.01648446990652
H         6.44481723952312    5.94774075224402    5.64245778366842
H         4.80085394641765    6.19258981705986    5.04771097818119
H         6.02016910442269    5.47813493344382    3.99076341955311
C         9.02863145306052    1.64213500340518    7.84422304267918
H         8.41788272387402    1.89977586524459    8.71448065681598
C        10.32300436615493    2.45762598415579    7.92468458880422
H        10.10040329165383    3.52205781791121    7.95851988495190
H        10.95487694375701    2.25890798782052    7.06134784928283
H        10.87476744501706    2.19186042073698    8.82333020734256
C         9.33854496342394    0.14585945741016    7.90988478752407
H         8.43287977980128   -0.43667282107562    7.76877665481806
H         9.75879910302999   -0.09930668927774    8.88259767543220
H        10.05985400138672   -0.14114425706804    7.14905181081302
C         7.07642182925641    6.57034063774199   10.67540677354635
C         6.35829173759380    7.74258500548302   10.41080696541341
C         6.76232405556437    8.91653278373986   11.02762310528468
H         6.22233899587873    9.83086647537786   10.83951832397978
C         7.84933643903714    8.93375266991360   11.88040332963870
H         8.14421043234722    9.85500757949344   12.36070119476619
C         8.57144638952905    7.77699983926343   12.10243369168058
H         9.43484211477232    7.80699894614837   12.74801586778317
C         8.20266297426704    6.58085541373114   11.50642937391154
C         5.23137342310014    7.73710497994150    9.40319903985225
H         4.87053452898694    6.71068547484999    9.28387365324654
C         4.04436530726634    8.60022799394324    9.82631560869253
H         3.21230670314405    8.44006967094810    9.14396492469491
H         4.29533417433592    9.65749153910137    9.80640980961839
H         3.72514167344125    8.33300118871981   10.83022083875643
C         5.79185815464461    8.19709671400977    8.05340037636655
H         6.61153220284472    7.54526967229432    7.74906993668253
H         6.16914587539732    9.21471262524884    8.12710569107984
H         5.01833180678940    8.16479110774975    7.28938624104258
C         9.04352876120861    5.33553434149775   11.67104589488965
H         8.44492063126451    4.46605964520590   11.38151631917677
C         9.51522286936331    5.11844064048885   13.10758069701268
H         9.98755467080707    4.14237053222078   13.19571813997706
H         8.67017006842127    5.15728343161737   13.78982417894353
H        10.24131900111180    5.87057424105482   13.40453555809984
C        10.23323247255292    5.42725083458597   10.70985354551412
H        10.83897556789864    4.52560114753772   10.76719339915387
H        10.85598147279531    6.28372889126668   10.95857140068391
H         9.87653283390766    5.54458815816845    9.68614339148175
C         9.18613578473647    5.37950729910369    6.03513536733442
C         9.79356972270928    5.08573746538660    4.78023070623524
H         9.58694519215198    5.88862559736811    4.07279139224201
H         9.38413808036654    4.14751927426383    4.39704360833276
H        10.87120495960196    4.98600636197908    4.90835882980579

