145
CSD_code = SERQAK | q = 0 | S = 0 | Stoichiometry = C44H94P2PtSi4 | MND = 4
Pt        9.82383370559167    3.63801581786186    4.27496459000927
Si       11.59572981940061    5.02194089724660    3.57828671401878
H        12.61042711047916    5.10883417069534    4.69833260773345
H        11.19135481292863    6.46487989756949    3.55086941076861
Si       13.04019132146826    4.81299967247867    1.71848494636962
C        12.19054913747827    5.40153922770561    0.11047506458771
H        12.78203971073495    5.18471988994107   -0.77429231950489
H        12.01313300685965    6.47152140035631    0.13225674066420
H        11.22678836689379    4.91958838162403   -0.00879378227448
C        13.56717778770237    2.95872218450206    1.44138050199244
C        12.42301729510039    2.23975658363115    0.72972329747050
H        12.26733971175341    2.65010227904325   -0.26368291475335
H        11.49588549383217    2.33998078857865    1.28698838098953
H        12.64748270472888    1.17805329493379    0.62274139329486
C        13.78463585846914    2.28032745781774    2.79195815636698
H        14.02487026467078    1.22416855376483    2.66252320879246
H        12.88034781473325    2.35307947752401    3.39325209504658
H        14.59683784191846    2.74733662456563    3.34240742572137
C        14.82437174864048    2.78509554491657    0.59134410547374
H        15.01199037968939    1.72579091609798    0.40745940398661
H        15.70014712379484    3.19353946764228    1.08857757040101
H        14.70958781363156    3.27541427216659   -0.37257717173802
C        14.54420712194569    6.03131783067110    1.97551953995747
C        13.98713038650660    7.38060279117133    2.43076960271585
H        14.79257236134154    8.10872895590788    2.53205884457383
H        13.48865575332181    7.28855145644521    3.39095069390906
H        13.27079831525504    7.76964634519185    1.71201777507872
C        15.33911123161611    6.27096983458583    0.69021468910618
H        14.69901623300643    6.68499753115679   -0.08426444681125
H        15.78250321335060    5.35377261354455    0.31553391002057
H        16.14562906265930    6.98210987282892    0.87460424556178
C        15.49468574786279    5.53030020898255    3.06166126064695
H        15.98682807388093    4.60864132444676    2.76228519048473
H        14.95267193955006    5.34839253715865    3.98658447451590
H        16.26950477193551    6.27137742389530    3.26211403231701
Si        8.75257918504852    3.87694392025598    2.19803236248673
H         9.58439693842286    3.61188414764502    0.98644951879277
H         7.76539892317255    2.75481874663472    1.98065129432182
Si        7.55229204327336    5.81520038087884    1.58279621623999
C         8.74335858794758    7.02180441751256    0.69745999119089
H         9.03898846299820    6.63310883007711   -0.27117682837127
H         9.64924325043694    7.15110427729412    1.27998246472493
H         8.30668275825131    8.00364029133721    0.53795190484786
C         6.89106073519908    6.74788839901366    3.15770440179059
C         8.06793776646762    7.49196217149217    3.78358058817890
H         7.77169865328275    7.94652707184178    4.72951721608279
H         8.42116668623128    8.28220062232229    3.12779804932626
H         8.89468808253520    6.80836891314064    3.96715588187530
C         6.37829080128273    5.73557273930806    4.17870990921875
H         6.06934342277596    6.23452762543795    5.09882525341540
H         7.16727325983334    5.02121565609214    4.42463366109490
H         5.52445265231301    5.18781682318482    3.78723622998180
C         5.78718749476232    7.76327042993503    2.87070843054653
H         4.88350353945794    7.27476458746853    2.51479107453737
H         6.11042197199445    8.48422868120462    2.12359727914215
H         5.53198030446881    8.31288196077078    3.77849779239809
C         6.18572081128561    5.35972838493545    0.27219527696556
C         6.83666743931861    4.46218017400048   -0.78062055502746
H         6.10975521906784    4.18293765150311   -1.54396100672825
H         7.22546927772684    3.55403842635186   -0.32966721624479
H         7.65943655701569    4.97443844057192   -1.27182087027610
C         5.61742426963391    6.58360098672988   -0.44791722625128
H         6.41031268076746    7.14277580994951   -0.93751119384284
H         5.10157891423654    7.24802717923052    0.23833960960351
H         4.90437198633241    6.27234971060558   -1.21261921238887
C         5.03806450429709    4.57966750021588    0.91128310929163
H         4.32149837502860    4.26320131965240    0.15235550723213
H         4.50448124606687    5.18724532318883    1.63814079922105
H         5.41444322053289    3.69058063166494    1.41158175961159
P        10.63231870466941    3.50502064117929    6.55741544285479
P         8.36316583892509    1.83826912103842    5.02538437114048
C         9.58878676160464    2.29493727504824    7.51550102233435
H        10.16414981457796    1.87822681645169    8.34633233483387
H         8.75199552584192    2.85260040986557    7.94301194102048
C         9.06631193763859    1.17743681143746    6.61968130425046
H         8.31273683541465    0.58109999260348    7.14352969634863
H         9.89503467274848    0.51629950296296    6.35573934664975
C        10.24300965142590    5.05312698681978    7.50874287397320
H        10.17487827062560    4.80674014919444    8.57799028275307
C         8.88532840986721    5.53815386869218    6.99926341634267
H         8.97378006733783    5.70277491139055    5.91729650520683
H         8.11881787910031    4.77607708406030    7.16383325722819
C         8.45832109924561    6.83105497701798    7.68437874443704
H         7.50206644629984    7.16474297081938    7.27615758805099
H         8.31577648092565    6.64554566847939    8.75307693584515
C         9.51420131179606    7.91450518325281    7.49608456031348
H         9.21228226802359    8.82495337711546    8.01824025085022
H         9.60931626890762    8.14761398165816    6.43414068230515
C        10.86026498397699    7.42937776481966    8.02138547369642
H        10.78632541420117    7.23560490210986    9.09534144730604
H        11.61850992515711    8.20044503590305    7.87273662020609
C        11.28006672637759    6.15339643394244    7.29635757390264
H        11.36375289404730    6.35890432779515    6.22801722040554
H        12.26102635753130    5.83738720969683    7.65525304625892
C        12.36443436561589    3.06954150054228    7.08422197915657
H        12.98811318820359    3.82054499668633    6.58186185218293
C        12.66838180025724    3.10293417045829    8.58074817944600
H        12.40808645652883    4.07005634282091    9.01295209531299
H        12.09129499512442    2.33646846621169    9.10387905351698
C        14.15584538436191    2.83047677573423    8.80381008151892
H        14.74227199171476    3.61784735315838    8.32463141124187
H        14.37732446740957    2.85245770667598    9.87337495691433
C        14.55284172487807    1.47791654635993    8.21896482045296
H        15.62120193758616    1.30920545578353    8.36722150398846
H        14.01499060119851    0.68451288376612    8.74480583190386
C        14.21634244960112    1.41864821824129    6.73165287621136
H        14.47265490986539    0.43626369689182    6.32928816588959
H        14.80543399744058    2.16409911777437    6.19371689821089
C        12.73340160285998    1.70019086888495    6.51462548041964
H        12.14692130604851    0.92288394565806    7.01360466777418
H        12.50205520748815    1.67345079732795    5.44719007164133
C         6.53586489093468    1.61628966330186    5.35339142750278
H         6.38160796771638    0.59195685735532    5.71824717334368
C         6.07167945298089    2.59396204467093    6.43253516460170
H         6.62456539101328    2.42353303055462    7.36015615303061
H         6.26703515552960    3.61533184530185    6.09884862576278
C         4.57844228338264    2.43382271606587    6.70475228590121
H         4.38344874175464    1.42771728193570    7.08594225178343
H         4.26589531641979    3.14681172830245    7.47098409550378
C         3.77732619191847    2.65486160567247    5.42666622733298
H         2.71186741535841    2.52404517466845    5.62647251632080
H         3.93075679040625    3.67766755263231    5.07692374729590
C         4.23108732155048    1.67719357200157    4.34821693727044
H         3.67359163954612    1.85315134925268    3.42614977611829
H         4.02172208854319    0.65491233671785    4.67513610859537
C         5.72556450537643    1.82986729929375    4.07796416420342
H         6.02974169374382    1.11290896477458    3.31270899022446
H         5.92663315492865    2.83159792698649    3.69492377593812
C         8.74298407615091    0.44438492007928    3.85673219798048
H         8.23988984363597    0.72430298028352    2.92273975360284
C        10.24674620017640    0.45322564914880    3.57920429606602
H        10.79853625399685    0.15176313268843    4.47361409280881
H        10.55454227397506    1.47781923981104    3.30831208443659
C        10.58451019099411   -0.51803367397477    2.45560314545735
H        10.08520524580528   -0.20006530211612    1.53854555758180
H        11.66011510309557   -0.51306510322322    2.27225286797812
C        10.12799639553882   -1.92562686456968    2.83085895821989
H        10.68105501523926   -2.26381743118226    3.71120980351302
H        10.34492846838693   -2.61896525472128    2.01592252410070
C         8.63310173529032   -1.94157991803293    3.13663671547394
H         8.32271330208221   -2.94876481974086    3.42456328500809
H         8.07945175953557   -1.66553593250250    2.23624586655873
C         8.28988474529898   -0.95809985532463    4.25597005719233
H         7.21292901131577   -0.98402550824856    4.43185025546622
H         8.79123638187055   -1.27105921247189    5.17516654265662

