48
CSD_code = SERQAJ | q = 0 | S = 0 | Stoichiometry = C19H21MoO6P | MND = 6
C         1.84234167853596   14.55618469382792    7.12704668688593
C         3.09668904697229   14.73219554725463    6.28634895693107
H         3.23906701753099   13.93137014255847    5.56217598619833
H         4.01954704248339   14.86810345172548    6.85094532282910
C         2.48534431870497   16.01933416100287    5.70365562039835
H         2.33771893227087   15.99571042334066    4.62731211070469
H         3.02773756305590   16.92327126065235    5.96964962855150
C         1.20252544712580   15.79894805428573    6.52566416322866
H         0.97827057690179   16.59769696423025    7.23004957457307
H         0.31538029189929   15.58264747451184    5.93379509186611
C         0.17532762904945   14.16133241010367    9.59527477790479
C        -0.23782727613900   12.85539339630409   10.22550554395069
C         0.06399579738730   12.89217771113859   11.54083283184095
C         0.64100892143207   14.19398717856538   11.87160363220454
C         0.71730900604341   14.94690527453260   10.75399505984096
C        -0.90078148430509   11.79346636801088    9.41869213582594
H        -0.89648997282047   10.83903142291182    9.93854506039976
H        -0.38807676356518   11.67360389109478    8.46180743458392
H        -1.93734514203741   12.06504044694674    9.21081110445105
C        -0.91235913510561   14.82903600481324    8.76995417171313
H        -1.83996328119304   14.82229685521995    9.34025687790067
H        -1.07222291261938   14.28720890845841    7.83980798511836
H        -0.65954634578564   15.86046634374126    8.54367338246547
C        -0.14319906282073   11.83075448595567   12.56672803555314
H        -0.79311492686759   12.19535777184302   13.36144663205071
H         0.80994651882938   11.55076645894429   13.01597359715187
H        -0.59216125359569   10.94385451561626   12.12916107131679
C         0.98424793617050   14.58632496785656   13.26755298038165
H         1.57712002036013   15.49678858079677   13.28586442963784
H         1.53945250710733   13.79660077971513   13.76829441193474
H         0.06893139668009   14.76158629266988   13.83409302245743
C         1.25465107436570   16.32370053691523   10.56729122510316
H         0.44628493394805   17.05185609002700   10.47937679896731
H         1.85624700927185   16.36646910681529    9.65559535967278
H         1.88196656004182   16.61472038310956   11.40605073045555
C         5.03819629137632   11.20279069239428   10.05183210793299
C         3.41211397742357   12.88605590561695   11.37588240676257
C         2.31138101322839   10.81851411456195    9.86424243256401
C         3.77950351747214   11.69751873516984    7.64590386234570
C         4.80229670182366   13.79294093568320    9.22292761603827
Mo        3.53728868389824   12.31542670169007    9.49770810572245
O         1.17970613833675   13.27463449067418    7.14522588038515
O         5.92224064143184   10.55330011237076   10.36342394013867
O         3.50941548423954   13.12507443288557   12.48548816948871
O         1.65478961706852    9.92665755364806   10.12469903073251
O         3.96442498225062   11.33367278003426    6.58374758181690
O         5.57842982663972   14.62278269196097    9.11901639584653
P         1.69678945550080   13.63814249780774    8.65237103517566

