50
CSD_code = SERROW | q = 0 | S = 0 | Stoichiometry = C16H26Cl2N2O3Zr | MND = 7
Zr        1.53003337465446    3.31382452046836    4.13488528969637
Cl       -0.31453916296671    3.69090409462940    5.62720240752421
Cl        3.20499241410977    2.69048541015935    2.51497148582814
O         0.61046107286103    1.59733134978151    3.59105069437401
O         1.36105169503187    5.26318761813538    3.72619478475131
O         0.31313029983178    3.68840205543404    2.12753237677806
N         2.25378328717908    1.92128961183505    5.66233708443761
N         3.31461173873252    4.30015294481756    5.15882571457699
C         0.66532085293527   -0.46549482804976    2.39203482501802
C         1.16287294122586    0.44438047324798    3.49615443211732
C         2.14742731914073   -0.02688152664798    4.34252055564774
C         2.64166737928122    0.69504060893680    5.45298095502747
C         3.56491958653252   -0.04343455513288    6.39478717229793
C         2.70185886983545    2.67810341557248    6.81435264665216
C         3.82024610064767    3.61264964997322    6.32784929958969
C         5.53279484633080    5.32500025871484    4.90323620473492
C         4.09659044338690    5.11404794667052    4.50374842203906
C         3.60661825186118    5.85164477662796    3.39841728168908
C         2.27028804550420    5.88512267116849    3.06315844771040
C         1.80231636849445    6.71908898746277    1.89227912584705
C         0.30241105599745    2.98825928036388    0.88963736244220
C        -0.70637520348071    3.75171473903869    0.02120052941563
C        -1.67557496241421    4.35734860775691    1.05306750637157
C        -1.05673796002438    3.97000360618923    2.40823096457240
H         1.23146395629516   -0.25008215683930    1.48574872516008
H         0.80431764608600   -1.51111443233839    2.64825700214424
H        -0.38881951487323   -0.27246300557330    2.20222861556486
H         2.52453571314431   -1.02366660328276    4.17923391925533
H         3.07108694596641   -0.20311002968973    7.35312285163382
H         3.82803154725198   -1.01141313392257    5.98016879347982
H         4.47953771898078    0.52129837457496    6.56588227361128
H         3.05386941818388    2.05161760713487    7.64300433780098
H         1.85045451937823    3.28580994976807    7.15649357549079
H         4.09597357863306    4.32353522866492    7.12136892354643
H         4.71050665299927    3.01280271299659    6.07246620425896
H         5.59546269959456    5.66042804689129    5.93825123953974
H         6.07847674958597    4.38518859970177    4.81832568123615
H         6.00792729866941    6.06228104706106    4.26420375627961
H         4.30799534812700    6.43598313191139    2.82540941456663
H         2.55712304440540    7.43306386728629    1.57890990301138
H         1.58185528908613    6.04631934744739    1.06322096763436
H         0.88502710717987    7.23925026254788    2.16209616532603
H         1.32308427671429    2.98240580378541    0.49982610748576
H        -0.03683265596241    1.95597474198036    1.05317178200565
H        -1.20724585514009    3.09097170272717   -0.68256671163534
H        -0.20549185278794    4.53595348990251   -0.54491755477353
H        -2.68271718095730    3.95801751366444    0.95334370063808
H        -1.72641900446499    5.43981434366132    0.94724709078689
H        -1.08441330634735    4.77115525430924    3.15400147352581
H        -1.53705879444693    3.06850661847181    2.82164619328613

