40
CSD_code = SERRIR | q = 0 | S = 0 | Stoichiometry = C16H18Cl2N2OPd | MND = 4
Pd        8.09583743323351   18.73673956981064    7.28033662883203
Cl        6.65820917929764   19.20196755178971    8.90732227517733
Cl        8.82819834049969   20.83830909994355    7.32676989599014
O         7.71680728007852   14.96362101990518    5.61600198356126
N         7.46733414250238   16.66831224028831    7.18492486239785
N         9.25157336425877   18.19773907992321    5.72197039875125
C         8.41687523446521   15.97585067181404    6.31228208299604
H         9.20004995324114   15.49148605630404    6.92194127926685
C         6.16895886180294   16.49919674880472    6.51113461557454
H         5.37488177684700   16.49306558180809    7.26117760169037
C         6.31899472315792   15.11169808544974    5.83049787552325
H         5.99897580830710   14.32511803597926    6.53306659721792
C         7.46434404652566   16.09788021100079    8.53712171455488
H         7.24616637264360   15.02428669717333    8.52468833115934
H         6.71810468353817   16.62470719890087    9.13333191332188
H         8.44287925380764   16.26380794697647    8.99641436178325
C         5.89456283513965   17.62727553017084    5.51706269743985
H         5.93923373888885   18.59924586495530    6.03844341824518
H         4.89666876589435   17.51098196639074    5.10033975166710
H         6.60897478248600   17.61565398314317    4.69249849731933
C         5.52217277854684   14.96744459871286    4.56109063077270
C         4.17582811285383   14.63254709007387    4.64588356738904
H         3.72764017503333   14.46007084633028    5.61387837566720
C         3.41071274686873   14.52149226322943    3.49967702114104
H         2.36532862193187   14.26272463507083    3.57565659339644
C         3.98475562443321   14.73679985380574    2.25761672246867
H         3.38778664637922   14.64623709517216    1.36274801929324
C         5.32634347027831   15.06386769111716    2.16806710566364
H         5.77974129987598   15.22917617928313    1.20203024763082
C         6.09191721657307   15.18231993216283    3.31480871239586
H         7.13977487613455   15.43121354070298    3.24635535260879
C         9.12927149154570   16.91671219927253    5.35364170021946
C         9.68061786232507   16.42887962920783    4.17945969795438
H         9.55739264361337   15.38470545799194    3.93875742096496
C        10.37466104936231   17.29685657738128    3.35121514555623
H        10.80949487800664   16.94395840782110    2.42892504296381
C        10.50322946269324   18.62141406737874    3.74172722531901
H        11.04174128551606   19.33115203181445    3.13498241873015
C         9.92836477153742   19.03174975405007    4.93151961028882
H         9.99879440987431   20.05473500889093    5.28443260710819

