37
CSD_code = SERSIR | q = 0 | S = 0 | Stoichiometry = C12H18Cl2HfN2O2 | MND = 6
Hf        2.79424236755879    1.59496540272107    1.29044044513393
Cl        2.36061503090568    3.65297339987344    2.34339614345710
Cl        3.94995800896296    0.84368388157414    3.15332358372885
O         3.15518497592073   -0.12613042169632    0.38839194451968
O         1.04184708310075    0.91194776505198    1.82229555618189
N         4.45373466849285    2.21585055542301    0.19676775857846
N         1.91649111860751    2.58333790430128   -0.40073100023462
C         4.44598169051961   -2.06865750295617    0.85424171412375
C         4.34295060380571   -0.59700470520447    0.54829082909338
C         5.50976719346193    0.13826552101728    0.40323798703970
C         5.54402290702816    1.51034341571217    0.06713042423006
C         6.82346826253926    2.09436309780594   -0.47047197646505
C         4.18897506086696    3.48282169116231   -0.43764424196003
C         2.87120437256497    3.29650164588555   -1.22844097104920
C         0.07875934856403    3.63863877279837   -1.63623399322008
C         0.63202038236164    2.76711343000144   -0.53686293528689
C        -0.31319280031016    2.18012715703004    0.33423831826952
C        -0.09200914352955    1.36325716808764    1.42845252568380
C        -1.28824459583256    0.94664578358547    2.25307898161210
H         5.37660724023472   -2.49562718078111    0.49425948607033
H         4.40375679489639   -2.17986318771250    1.93784752227637
H         3.59573258954059   -2.59345929076159    0.42570195407407
H         6.44783402692628   -0.38742866587901    0.47988448661824
H         6.75895637050985    2.20570957837288   -1.55295327833964
H         7.65915386269452    1.43986220629176   -0.24440134437813
H         7.00849356062489    3.07289064959716   -0.03233241644716
H         4.98368407870896    3.80981589741860   -1.11780098529971
H         4.02901099108190    4.24576563728212    0.33711120745789
H         2.50065700158284    4.28186602326884   -1.53102735436461
H         3.08105550147258    2.70207784524813   -2.12960320477913
H        -0.99762373274708    3.52504126894226   -1.71359213383810
H         0.53044407173286    3.38385628932113   -2.59317749665440
H         0.29664188303726    4.68422149199153   -1.41945049952653
H        -1.34533041977792    2.43159812636379    0.14165921470262
H        -2.16319471058708    0.77776683616919    1.63251470033034
H        -1.04555645742883    0.04651837689708    2.81211864126397
H        -1.51429918808880    1.73964413579581    2.96504040739859

