69
CSD_code = SERSAL | q = 0 | S = 0 | Stoichiometry = C28H33ClN4PtSi2 | MND = 4
Pt        2.92083448389980   10.55138593938070    6.03545612269813
Cl        2.84512512352344   12.71958548349784    5.05717732093633
Si        2.81431112423912   10.95414653129856    1.81860517870577
N         4.39359009000616    9.75764785127634    8.37922568503787
C         3.77597264256836    8.56313017593822    7.96040909990685
N         4.71245828175767   11.91717138447760    8.25977695031321
C         3.84249644786857    7.29634274890293    8.52152594714075
H         4.44958206443360    7.07874655706026    9.38455517753802
Si        2.84277238274225   13.96154137360923    8.53081475508544
N         1.56793277769674    8.18322582541298    5.11183831688741
C         3.09688805934466    6.27759411229586    7.94280140253928
H         3.13968421893071    5.29155676887416    8.38092660498219
N         1.09121976778394    9.68818391268210    3.59942403007339
C         2.29869864213216    6.47490487901095    6.82355846060592
H         1.73777165211679    5.64593348876721    6.42501219445441
C         2.25621529391362    7.74088433770476    6.25827323352688
C         2.98976715432924    8.77017083139016    6.83423377278258
C         4.16620459790834   10.88074471091422    7.61401277914095
C         5.09878740718296   10.09933638107191    9.50782508405547
C         5.29534628132742   11.49466558712388    9.42981207453592
C         5.97369789455132   12.18922134417232   10.42019602764853
H         6.12014646244361   13.25553006492573   10.35676614441897
C         6.45243725632905   11.46393559735296   11.49264727703452
H         6.98465862930243   11.97100161760613   12.28281128988188
C         6.25998542029488   10.08633832237547   11.57597459544932
H         6.64744717882545    9.55252141327035   12.43039737109089
C         5.58691957822831    9.38537252520799   10.59441828866731
H         5.45281577026627    8.32088776715818   10.68416284360995
C         1.69867437183357    9.51378279999216    4.77840853065056
C         0.56235847762428    8.50011493656890    3.15677397756874
C         0.86089410678566    7.52647797774850    4.13378916901941
C         0.44447696791019    6.21303127349534    3.95998475530369
H         0.65578430663136    5.44679502097344    4.68621384408886
C        -0.26029866137990    5.90714826619505    2.81213852195232
H        -0.59357289547459    4.89247459867926    2.65532466768804
C        -0.55331239248413    6.87323900494458    1.85163046099375
H        -1.10718446572790    6.58959051113434    0.96986771692126
C        -0.14713504416431    8.18314817646923    2.00805909609449
H        -0.37180976082909    8.93053668511041    1.26414443687946
C         1.15606270336158   10.89738228168351    2.82935055090393
H         1.13771859338939   11.74086534429801    3.51836641475803
H         0.27422587010421   10.95977858811100    2.19309639813390
C         3.19829517639813   12.77367629135204    1.43321563650550
H         4.11828135765422   12.86969428622197    0.86531953848546
H         3.31257698721427   13.33391210164941    2.35588770445220
H         2.40404171792217   13.23899696159509    0.85695800881427
C         2.52660245261407    9.94374112489868    0.22192320906732
H         2.26653334636745    8.91024780698573    0.43239288119636
H         3.42269284475881    9.93594308897955   -0.38954884342378
H         1.72946891965131   10.36980573331345   -0.37944777721708
C         4.18047642477534   10.10426365562766    2.83912831084041
H         4.08638561769816    9.02062904280163    2.82153787450004
H         4.14498545425481   10.42623063068896    3.88850497681627
H         5.16797945705648   10.35377482958499    2.46295199338483
C         4.54262574002835   13.28876071232680    7.87322564947642
H         4.53990990682891   13.33745423249311    6.78502710283103
H         5.39140186296310   13.86668963137553    8.23645677574146
C         1.57170641959330   12.54245187450314    8.50557001510694
H         0.55677120458032   12.91931459752313    8.58828012017863
H         1.72923199921479   11.84106264959200    9.32204548859398
H         1.63017942802164   11.97912931014132    7.56420539778455
C         2.33592661961526   15.42902023472594    7.43693675510635
H         1.38644603880439   15.84741434852707    7.75562286293147
H         2.23203765475554   15.10661135805834    6.40565802790521
H         3.07384113645878   16.22532964931784    7.46455754716883
C         3.12092671730805   14.49888420896093   10.34379693241388
H         2.20185382102359   14.88652277285906   10.77049205174076
H         3.86636474467235   15.28488086283244   10.41538389251285
H         3.44840808809067   13.67378500491984   10.96993129743054

