66
CSD_code = SERTUE | q = 0 | S = 0 | Stoichiometry = C27H34Cl2Si2Zr | MND = 12
Zr        3.09669946017544    0.00002054231174    4.93688292349280
Cl        1.52441031472933    1.70864554339467    4.99172428730605
Si        2.10965021025497   -1.50588103945229    8.22684001278765
C         5.28131491925785    0.15649970480372    6.08693512215043
C         4.53516215118789   -0.93828161882496    6.59656761695592
C         3.40205249467512   -0.48214563565877    7.32136716910287
C         3.45402761336748    0.94537370585238    7.28873283504453
C         2.64068350023001    1.90726737752687    7.91196687999559
C         2.89808228794777    3.23773685036443    7.70532447106517
C         3.96508099581322    3.64253656634815    6.88841443713972
C         4.80288933097149    2.73382927141898    6.29052125924300
C         4.58604542234669    1.35138935616760    6.47983461110149
C         6.27852624000863    0.00003241631807    4.93688754316032
C         7.20656020444234    1.20484365321259    4.72233926339826
C         2.35984970609962   -1.30083558363390   10.11348197367383
C         0.37719348940375   -0.83996221183699    7.75077466746663
C         2.37898974487817   -3.34853012893288    7.79588317019245
H         4.81001082528745   -1.98687949276907    6.53428318096564
H         1.82816131191582    1.59130291857752    8.55049430237267
H         2.28149674821318    3.98914089340369    8.17426805392445
H         4.13857503043065    4.69834200350395    6.74143581368104
H         5.64534131377369    3.09917729748919    5.72322305933828
H         7.99608573934157    0.92501607780799    4.02718525988849
H         7.66531754519530    1.49418541046494    5.66545749263493
H         6.69680194408427    2.06432912650940    4.30242066983892
H         1.60379127976793   -1.85489677128863   10.65937693358130
H         2.29364672824920   -0.26228872209652   10.42026435452090
H         3.32951189038106   -1.67177664262133   10.42862605221345
H        -0.24463247527347   -1.63010591136078    7.34210031885338
H         0.44556019583125   -0.05991391678228    6.99020325173336
H        -0.14343612148347   -0.42662933127570    8.60995551681285
H         1.59922040455002   -3.95674964137276    8.24179420108851
H         3.32885053124678   -3.71080821406707    8.17849991945801
H         2.35556609812628   -3.51876638550209    6.72341290023453
Cl        1.52418499298777   -1.70853875925019    4.88237525805039
C         5.28127146298113   -0.15645955664546    3.78688402414788
C         4.53516578338255    0.93831922269169    3.27715325745962
C         3.40209418603584    0.48217823953229    2.55230553232718
Si        2.10966169411165    1.50583511208973    1.64678922342173
C         2.35997682460464    1.30082798984006   -0.23984595321900
H         1.60354522492913    1.85437915205249   -0.78574438294185
H         2.29443501687277    0.26222863965310   -0.54658106831546
H         3.32938202031607    1.67238636328509   -0.55504947101726
C         0.37724847717028    0.83971294850053    2.12279333740373
H        -0.24488407838571    1.62983754122223    2.53099597955889
H         0.44566072977039    0.06001025443530    2.88366639700724
H        -0.14311009124560    0.42589307445075    1.26370921056951
C         2.37867901891368    3.34853883040962    2.07767571017418
H         1.59900196050666    3.95661002760342    1.63140270812979
H         3.32862987200038    3.71092551769033    1.69539879250745
H         2.35481351174415    3.51887878454334    3.15010941696107
H         4.81005602327937    1.98691084488088    3.33938446519025
C         3.45403123613897   -0.94533277207004    2.58502571282010
C         4.58594606174319   -1.35134378599111    3.39407301743692
C         2.64063468940771   -1.90723979549180    1.96187756866918
C         2.89780220908118   -3.23770166343749    2.16883455682699
C         3.96464689311338   -3.64248646891209    2.98595705527032
C         4.80255524268153   -2.73378012816235    3.58370786077061
H         5.64490897156610   -3.09914992856713    4.15114487056168
H         4.13793854606067   -4.69828532146701    3.13322109266059
H         2.28112802484345   -3.98911267601983    1.70001935929032
H         1.82818610153236   -1.59128202862023    1.32325455564120
C         7.20661373401048   -1.20474958127791    5.15137439853413
H         7.99623245784435   -0.92488751690036    5.84640832133256
H         7.66524792448949   -1.49411469392235    4.20820361157975
H         6.69692820207592   -2.06422533415149    5.57139605677051

