67
CSD_code = SERXEV | q = 0 | S = 0 | Stoichiometry = C33H28IrN5 | MND = 6
Ir        5.61286447200118    6.52598817553557    7.58063602239018
N         3.66122754064491    6.95525054981743    7.06576573099217
N         8.20781788409299    5.56125812793743    6.82661804717904
N         8.52901912551655    6.43186885096513    8.77588778892162
N         5.24081703396215    8.22203916140203   10.34615717091177
N         4.60669281762411    6.16905607657038   10.29448668643847
C         2.62098010950833    6.13508690799131    7.20537817666995
H         2.83855731939310    5.14078234717375    7.57026824533430
C         1.32107281017017    6.49074870578221    6.90717647251438
H         0.52145180462904    5.77937694259073    7.03949486242414
C         1.07741273532096    7.77442470480394    6.43647912187310
H         0.07426143588885    8.09694254783721    6.19925956718252
C         2.14899697206641    8.62483960462969    6.26756291038379
H         1.98652083492587    9.62152287709002    5.89054786665161
C         3.44456512332491    8.19907330174087    6.57474045797217
C         4.63889231233626    9.00230183544499    6.36244285517498
C         5.86516907408747    8.37546524991524    6.69321987460037
C         7.02187622625790    9.09025605711123    6.36046770898750
H         7.99338618986144    8.63579902576067    6.51870819865755
C         6.98433518273033   10.35574849734745    5.80535120808517
H         7.90548451219449   10.87081023453442    5.56581701568003
C         5.76602006900276   10.96962587521469    5.55187248125042
H         5.73272283687980   11.96496341162519    5.13160195834476
C         4.59824975260031   10.28709277187985    5.81475816859169
H         3.65472537497031   10.76130648083868    5.58379358723929
C         6.10062713129044    5.64222788382286    5.79352791298881
C         5.30297291101001    5.33844099248797    4.69288437870813
H         4.25882247942826    5.62465684494552    4.69135757625021
C         5.80348678576080    4.67406114082074    3.58379829968795
H         5.15110120318128    4.45675788105854    2.74874186476496
C         7.13081559938957    4.28319591343756    3.53341229775921
H         7.51548809848156    3.76323750752597    2.66791095258092
C         7.96556365935887    4.56184885370565    4.60104770488440
H         9.00300416298953    4.25912568062622    4.57408258056407
C         7.44355232029960    5.22754210514422    5.69740797720286
C         7.56787868567857    6.18116253882366    7.85131234619193
C         9.53790882695720    5.42255155077434    7.10355783305114
H        10.23476391947546    4.95856017020530    6.43700633201445
C         9.74097814087297    5.97468989445070    8.32413068362529
H        10.63828583000971    6.07065318142639    8.90079948268654
C         8.32726192425872    7.17282029962570    9.99370662397399
H         9.11364036411043    6.89879216718495   10.70185601604339
H         7.36826574257519    6.86686121916191   10.41027869625391
C         8.33864548017074    8.69116141083605    9.72960206476219
H         8.09378651092981    8.85500423063442    8.68068297432585
H         9.34546885574609    9.07639552684743    9.90153664375832
C         7.34652965193828    9.49495695741165   10.57273954244766
H         7.35966386132829    9.14700398231006   11.60853804527774
H         7.66488936548741   10.53867206709539   10.56941589350759
C         5.90816781398820    9.45542888732314   10.03187471056433
H         5.33531561174084   10.27900402283964   10.46944360008386
H         5.91985413489704    9.56552900393388    8.94521583485237
C         5.17229336624538    7.14215498633697    9.53953525002443
C         4.71511380228717    7.93048170800343   11.57920204610807
H         4.66431341251515    8.65368806254593   12.36754703959752
C         4.31220145737486    6.63733200079392   11.54458346413450
H         3.85218069787999    6.04414340633527   12.30712658818949
C         4.50307158720720    4.86397558542675    9.76919601967451
C         5.05110261599393    4.70699265931218    8.48304525611081
C         4.99291315350889    3.41160791802876    7.96989068204423
H         5.39631781977540    3.21851346212491    6.98468070915299
C         4.43233940893290    2.35812630055290    8.67627106886874
H         4.41207349591920    1.36773775079486    8.24167907069259
C         3.89135120998176    2.56491542170282    9.93368959603750
H         3.44473082753746    1.74706844071206   10.48118309917733
C         3.92636518379489    3.83070300740107   10.49107530709640
H         3.50297333970000    3.99918905393357   11.47193374982642

