64
CSD_code = SERYIY | q = 0 | S = 0 | Stoichiometry = C30H25CuIN6P | MND = 4
Cu        3.39763510962932    7.67764076139255    4.53412250731973
P         4.84099082820699    7.91300674612767    6.29262589309754
I         1.53412820821342    6.06332990869277    4.45899212906930
N         2.62012400264513    9.61285519226644    4.27584631405814
N         4.83685815264399    8.45630595686139    3.27960860844138
N         6.10755386158343    8.18112427572597    3.01130728561804
N         8.97414213042771    8.73507321516982    3.07196145227145
N         5.81269149819499   10.33563200612665    2.75999646528644
N         6.03890706865258   11.69230971440349    2.56044101535123
H         7.04297871037990   11.86204827942241    2.56414407779341
H         5.60990143052766   12.21985576618936    3.32112469807431
C         5.83395522879267    9.42976265881760    6.13216563785357
C         5.13952655357903   10.64084809828417    6.17655446469335
H         4.08351372931307   10.63601418082694    6.41835121498885
C         5.79092264906159   11.83252633940893    5.92534712047610
H         5.24621049312859   12.76627249043424    5.97320999463766
C         7.14502590086268   11.82958238223949    5.61590438635777
H         7.65745665429668   12.76228010198609    5.42330676963224
C         7.83565447527829   10.62966324610074    5.55751844782757
H         8.88811180930530   10.62214738516699    5.31257823111540
C         7.18611168294386    9.43223843601514    5.80460659233130
H         7.73057074141233    8.50230886810040    5.73522235843611
C         4.04417512856538    8.14381876452549    7.91240976840617
C         4.56685716919874    8.95298981593711    8.91735093077011
H         5.49186914191210    9.49040543370692    8.75496381251721
C         3.90197143612056    9.06278044105775   10.12467663175804
H         4.30936706321090    9.69004394434118   10.90482795813145
C         2.72104423930686    8.36854151997730   10.33824909348382
H         2.20834816327292    8.45929830288945   11.28461020956765
C         2.19996196773324    7.56042683811669    9.34110776233283
H         1.28054289275519    7.01852445641322    9.50380785677754
C         2.85721447856729    7.44957270990610    8.12924598437751
H         2.45396186059314    6.82480322951307    7.34410723911834
C         6.08507214956379    6.62693176748951    6.61704783962861
C         6.33556483209732    6.10682255071960    7.88208758643931
H         5.80006390657980    6.48364473589128    8.74201806592877
C         7.27234235460599    5.10052684899391    8.03512334916312
H         7.46705095287435    4.69738119937832    9.01845024189952
C         7.95537472429436    4.60725268965592    6.93552793082865
H         8.68392069794378    3.81996324499972    7.06325542286795
C         7.69534608319660    5.11401158964573    5.67214683148674
H         8.21775911397425    4.72321271823337    4.81172209548770
C         6.75527167496670    6.11368907465281    5.50683423350102
H         6.53765044696631    6.50235173945281    4.52007539104379
C         1.39988096658649   10.02016577281313    4.58222932943399
H         0.83650171481509    9.36642049235596    5.23373730715207
C         0.86866474656834   11.20745268565252    4.11108731198312
H        -0.12459973207801   11.51163075686405    4.39814626688605
C         1.64069092211063   11.99194876032900    3.25869102663849
H         1.25242749598473   12.91888145140402    2.86422739144107
C         2.90620108317307   11.56173763185914    2.90858763202937
H         3.51699687129080   12.11906203714608    2.21550118984491
C         3.36804048212534   10.35924414472830    3.44418312692789
C         4.63836931464532    9.75879002907849    3.14375520025328
C         6.70936814062796    9.30195206628015    2.70346822831394
C         8.11386380507849    9.43997154567841    2.34363391789614
C         8.51369563791905   10.25933994371183    1.28661289602137
H         7.78593339790987   10.78339657274459    0.68520993472857
C         9.86626389350918   10.34430829683803    0.99904899968046
H        10.21170891402063   10.96636521403897    0.18637297806491
C        10.76200640794981    9.61435557695604    1.76324372722419
H        11.82209391929710    9.65451377142696    1.56965568950124
C        10.25622609612955    8.81804145458064    2.78311993834506
H        10.90986452506231    8.22100217021866    3.40500600734540

