42
CSD_code = SESDAV | q = 0 | S = 0 | Stoichiometry = C21H16CrO3S | MND = 9
Cr        0.37582424670001    3.22516226385490    5.85406381305858
S        -0.80927116878362    1.33951809861688    9.63632608422418
O        -2.45040449500714    2.34643284565029    5.54885083523277
O        -1.06102519312741    5.83002849186045    5.86195029121982
O        -0.09503908690843    3.64077250410045    2.94530689285649
C         0.20662929073342    0.67968562991109   11.04175823397632
C         0.42092473666322    2.70952260809694    9.35647812651734
C         1.52014791007095    2.41440507332875   10.42447293902012
C         2.20515948199567    1.13102372254041   10.03444676333990
C         1.42876192904181    0.11458153536263   10.39692800066503
C         0.73328233026403    1.96845397419138   11.65799045302002
C        -1.34489265298390    2.64484932850340    5.70330254689280
C        -0.47528705227006    4.83430135417882    5.89586539047106
C         0.13135715941245    3.46242659938734    4.06429190039476
C         1.04517007794852    2.65992253648502    7.98033821183746
C         1.02043757967704    1.50763407773559    7.17333166573654
C         1.78028646291032    1.43265986415383    5.99944455667237
C         2.52642616114819    2.54491246856432    5.58159704488535
C         2.54765530702400    3.70808285768680    6.35889622074863
C         1.78131489234626    3.77117117314050    7.53363875125591
C        -0.31073811737110    4.02172246925691    9.54144067438691
C         0.12202210282117    5.03770644626441   10.38300751470149
C        -0.58558943231308    6.22614143619668   10.46715864352237
C        -1.73091184948070    6.41525899948786    9.71659304448714
C        -2.17683579598577    5.40191192947538    8.88428414638797
C        -1.47200462243199    4.21752928735074    8.79795660039064
H        -0.40418424378116    0.02229267070315   11.64965808301208
H         2.19763136239340    3.25639620763634   10.55008433158167
H         3.13275614916405    1.09408329840527    9.49247522437351
H         1.57211852936248   -0.93262539316060   10.20449757649682
H         1.38585489058052    1.77013371581447   12.50920949428879
H        -0.05502690572414    2.66153660981411   11.94728539280609
H         3.16071693267683    2.46973033034789    4.70583159644451
H         3.18550212891165    4.53921673595649    6.08470991294715
H         1.84923120692076    4.65113891696196    8.16485148082921
H         1.01088068146518    4.92367260518176   10.98556464735189
H        -0.23236133199818    7.00612691573282   11.12590492624162
H        -2.27523917251134    7.34486255837781    9.78334055296219
H         0.49143436973526    0.62947843303430    7.52546325390044
H        -3.07146829093760    5.53202009771926    8.29635923045775
H         1.82692384070024    0.50479833868171    5.44334153938706
H        -1.83127034904992    3.42162038341047    8.16100341101398

