35
CSD_code = SESDOJ | q = 0 | S = 0 | Stoichiometry = C16H15ClN2Pt | MND = 4
Pt       -5.49725644787876    0.75725688994526    5.55172946670935
Cl       -3.59064029062316   -0.16430426352341    6.65888282448159
N        -5.71668180522703   -0.95469430846372    4.66840071361305
N        -5.15460240349560    2.40704997851473    6.50954008439276
C        -6.04988035355281   -2.01689149835369    5.40647725457984
C        -6.02702158600301   -3.30500825967881    4.90740664961579
C        -5.64202004779154   -3.51109224759189    3.59090963498217
C        -5.29945327273834   -2.40621015574023    2.82602507466614
C        -5.35262092079891   -1.14922342463151    3.39843563390911
C        -5.85036692027125    2.75029270233915    7.59634054967481
C        -5.47716198761949    3.79912999095900    8.41548957757656
C        -4.34263088004174    4.53140065054129    8.09965381246350
C        -3.62630998878509    4.17699834474898    6.96610887131497
C        -4.06303099753878    3.11230029728474    6.20167011958077
C        -7.10901885964200    1.53711319914416    4.61293190989092
C        -6.99855172125145    2.66469964901328    3.79918090978476
C        -8.09830224686822    3.19765158264050    3.14690138098225
C        -9.34487506044402    2.61661241749663    3.29867687028942
C        -9.48062293169471    1.49951663424325    4.10383742481456
C        -8.37534829248384    0.96773481073621    4.74767087813605
H        -6.32752678663174   -1.81959738944436    6.43684013123761
H        -6.29802568114471   -4.13325812757675    5.54278964924786
H        -5.60722487940239   -4.50561398800502    3.17360356401984
H        -4.99178012994540   -2.51641024287942    1.79820656962718
H        -5.09800051158821   -0.26230450447167    2.82802452125147
H        -6.73501347810783    2.15957649592985    7.80954917655355
H        -6.06484533885545    4.03518671599686    9.28842483330060
H        -4.02343904048945    5.35351397678457    8.72145737805112
H        -2.73494696022052    4.71369963572702    6.68232455501872
H        -3.51785568451702    2.79489340177909    5.31861737145790
H        -6.03299730397044    3.14201905352765    3.66543728897933
H        -7.98252317196762    4.07092519234037    2.51934375566209
H       -10.20502078337182    3.03167432789207    2.79271013341291
H       -10.45116621502557    1.03874933717999    4.22862587542917
H        -8.50903702001330    0.08881312559576    5.37027555529429

