48
CSD_code = SESFUR | q = 0 | S = 0 | Stoichiometry = C25H20O2Ti | MND = 12
Ti        4.01963720410319    2.15366219225821    3.29816911955830
O         2.59161264244261    1.59021988359363    4.19316889145370
O         0.41576627586847    1.78119911233888    4.60700180936874
C         1.44516573923179    2.22712063580529    4.14894237291093
C         1.59113761880752    3.56353033711650    3.48770895842853
C         2.83735753844837    3.82448310814386    3.03034686871926
C         0.42073323497034    4.44767517881861    3.38083737521580
C         0.18766159484943    5.16147765579223    2.20536289303217
C        -0.90796115955613    5.99519744079647    2.09629015737355
C        -1.79044095599728    6.12724676129298    3.15621928714138
C        -1.57274668712718    5.41459677816808    4.32331556911085
C        -0.47708259111709    4.57882341214310    4.43817105413576
C         3.25097649387711    5.16051175733592    2.61082896552090
C         4.01014576791121    5.40044689976217    1.46054639161244
C         4.42194805982530    6.68009649838293    1.13665104310431
C         4.10757274403608    7.74895130257442    1.95934975666196
C         3.37061570764350    7.52695594628967    3.11177390494091
C         2.94639809027465    6.25374028267280    3.43375707165628
C         4.74419688732094    3.53262375819064    5.05642172137968
C         5.67467945794213    3.70187391768766    3.99566772444098
C         6.32877687307484    2.47870114642681    3.79847500376957
C         5.78510227451943    1.53584339382552    4.70281825441097
C         4.83949772071994    2.20105089495897    5.50681533270129
C         3.44737557370171    1.99303457175457    1.03357872656462
C         4.85845146699131    1.88829244186129    1.14214162307400
C         5.14707438467293    0.68544584288606    1.81503419031327
C         3.92831293761391    0.05433820431017    2.13713173084332
C         2.88284513719354    0.84456662821297    1.63224224724617
H         0.86902012720610    5.05060849038139    1.37353425907631
H        -1.07762929937600    6.54160421470946    1.17967571079446
H        -2.64788189962267    6.77850200947110    3.06936634274210
H        -2.26153946798266    5.51019547935361    5.15006667223492
H        -0.31201325312322    4.02213154531836    5.34716259298488
H         4.26492141775544    4.58037487723761    0.80240611784473
H         4.99614172883518    6.84456565193214    0.23597670101770
H         4.43510744978411    8.74574957079937    1.70524885868484
H         3.12285394595595    8.35332474924315    3.76173207068878
H         2.36962315628350    6.08810152244467    4.33254863042912
H         4.17865648434117    4.32351567402535    5.53258621270601
H         5.93325120913927    4.64558009488024    3.53110761868475
H         7.17727193816399    2.31762818910683    3.14594022761022
H         6.14755314762898    0.52789695792117    4.86260991977045
H         4.31482305180144    1.77927615220768    6.35558271566382
H         2.89906373463045    2.70517267805255    0.42915675783717
H         5.58614653421896    2.52406584877690    0.64968538008128
H         6.12994549378076    0.25193213284802    1.94475880905568
H         3.81730589428564   -0.91927570709800    2.59672616574031
H         1.82876857406451    0.59584388497691    1.65226019165469

