65
CSD_code = SESGAZ | q = 0 | S = 0 | Stoichiometry = C28H28N2NiO2S4 | MND = 6
Ni       -0.00000271912575    0.00001113894180   -0.00000579502942
S         0.67672737812185    0.98022668877005    1.93814697282387
S        -1.96700457232524    0.76825989301383    0.84157491160945
O        -1.37140979188340    2.01980243427217    3.09992553984309
N         0.30807314863721    2.03775686092612   -1.13382449222311
C        -0.95586602334922    1.32416860318136    2.05709881799366
C        -2.75727611428106    2.31904179520252    3.19112483625434
H        -3.32746008095862    1.38239739197781    3.24396965898154
H        -3.06984466860152    2.84187687266228    2.27429765134004
C        -3.02053998984629    3.17573133263285    4.39834405837371
C        -2.02959696521262    3.99166052283945    4.92532046848020
H        -1.04866385155928    3.99066419550937    4.47597078441624
C        -2.29623638808942    4.78774322584178    6.02573827423975
H        -1.51766333870649    5.41563158976161    6.43306244279367
C        -3.55502008261292    4.78240986955365    6.60112003645588
H        -3.76237306102147    5.40538282192824    7.45850844879560
C        -4.54819432583528    3.97333057892643    6.07479240998199
H        -5.53197196412117    3.96404254406292    6.52041829909272
C        -4.28184320482565    3.17047657049707    4.98047585872376
H        -5.05568225148549    2.53616351726213    4.57246490102104
C         1.43410879445797    2.72915509610581   -0.98000067545212
H         2.18708240353069    2.27413761488241   -0.34586681311745
C         1.66711285213931    3.96227051813542   -1.57580029398116
C         0.65664829845630    4.48890841433157   -2.37373415452057
H         0.79155182237651    5.44700258071776   -2.85665127545064
C        -0.51563666056966    3.77371601350173   -2.54001436342913
H        -1.31676618292991    4.15573507683371   -3.15375566279405
C        -0.64824443976467    2.55095576200977   -1.90239623780392
H        -1.54887563031243    1.95796322623994   -2.00731666441403
C         2.95471155737346    4.69455389926439   -1.36936865516504
H         3.47572324863515    4.81638581869400   -2.31853976048501
H         3.60127090570855    4.15367289820032   -0.68354165655133
H         2.76555660894372    5.68775105302599   -0.96421179467307
S        -0.67675179760995   -0.98033882980623   -1.93808662434933
S         1.96698116496012   -0.76835903047790   -0.84151931614297
O         1.37140690086789   -2.01980082733836   -3.09992761212866
N        -0.30806636527257   -2.03774622421337    1.13381159753205
C         0.95587547238209   -1.32406556550376   -2.05715965505763
C         2.75726983387124   -2.31907048556874   -3.19110226791618
H         3.32747759885490   -1.38244329412492   -3.24395201489320
H         3.06981600324988   -2.84189760557530   -2.27426098366967
C         3.02053954211670   -3.17574025750970   -4.39833405530711
C         2.02959748185792   -3.99166544544283   -4.92532131228888
H         1.04866018373916   -3.99067306695009   -4.47597760610731
C         2.29624224467492   -4.78774766339727   -6.02573718882729
H         1.51766065252557   -5.41559612106838   -6.43309971834423
C         3.55503229707510   -4.78242895773946   -6.60110196039751
H         3.76238006975992   -5.40536836967257   -7.45851952516100
C         4.54819719699920   -3.97333240235533   -6.07478160076637
H         5.53197171547878   -3.96402714812837   -6.52041759654727
C         4.28183720868023   -3.17046253401151   -4.98048161300307
H         5.05567596748987   -2.53615345779377   -4.57246877229787
C        -1.43410275325074   -2.72914652186162    0.97998844236694
H        -2.18707894934236   -2.27412948063971    0.34585708366708
C        -1.66710897545548   -3.96226025394037    1.57579237909975
C        -0.65664562763540   -4.48889687981205    2.37372889436668
H        -0.79154835815831   -5.44699078173186    2.85664685975022
C         0.51563913243360   -3.77370375756241    2.54000863569356
H         1.31676788945775   -4.15572187082251    3.15375156746813
C         0.64824947695965   -2.55094519112837    1.90238757475458
H         1.54888261998378   -1.95795571227674    2.00730674347166
C        -2.95470913203678   -4.69454238413366    1.36936338553465
H        -3.47571992904015   -4.81637212684571    2.31853537930638
H        -3.60126938308459   -4.15366336229681    0.68353530178869
H        -2.76555409349854   -5.68774080998013    0.96420950227080

