47
CSD_code = SESGON | q = 0 | S = 0 | Stoichiometry = C12H24Cl4N4O2Pt | MND = 6
Pt       11.37497154374478    1.71690900060989    7.93234415386084
Cl       13.05845386457559    3.35769485072502    7.63470568397497
Cl       12.88344944220310    0.08001567767954    7.11242747476894
O         9.88290620102826    2.52764331870044    4.03094020485528
N        10.69423183692816    1.84339011879259    6.04799073937528
H        10.52070482240616    0.91229464903076    5.64318640791603
N         9.76660195063521    1.14548356717816    3.74158352756688
C        10.38227594026490    2.78095355505778    5.24159635683229
C        10.54699068616371    4.24244045257134    5.49017842469037
H        10.68131620131628    4.41479358443621    6.55745095254971
H         9.64511416821020    4.75248918525559    5.14726474314966
C        11.76320578408551    4.76701603755572    4.72033906911063
H        12.66783677955500    4.29436808929619    5.09235530066201
H        11.84854667409991    5.83881125972038    4.87210590957769
H        11.66437505076099    4.56795035756214    3.65582771676154
C         9.24827270875621    0.85000837953972    2.62484381915239
C         8.77108823855003    1.82761428811905    1.60307403760205
H         8.35955032259992    2.71226931971583    2.08492067863609
H         8.02726104120567    1.37766669276759    0.95195643678013
H         9.61844734651132    2.14614955980600    0.99511122275314
C         9.13170633551773   -0.60324984739431    2.32230903407086
H         9.61059185154805   -0.81918299276788    1.36899527474137
H         8.08014675486042   -0.87396822957534    2.23996495437220
H         9.59318043816027   -1.19426887654258    3.10758014427811
Cl        9.68911663879548    0.07909355296728    8.23235643073717
Cl        9.86566008608386    3.35602307195861    8.75241819293786
O        12.86640075213119    0.90887586308142   11.83429358129617
N        12.05575700889637    1.59296191787136    9.81687801503879
H        12.22852404252470    2.52414991976069   10.22180670776068
N        12.98267368187426    2.29102032395342   12.12367263824410
C        12.36750501433605    0.65552189710113   10.62347070630885
C        12.20238032125805   -0.80593293072485   10.37504050820107
H        12.06809001776408   -0.97820213787922    9.30774334345132
H        13.10421743685670   -1.31601477781773   10.71796112971397
C        10.98616697190085   -1.33063356355282   11.14485335086199
H        10.08150803376743   -0.85795695439209   10.77294248012840
H        10.90075874010924   -2.40242559342804   10.99305218052021
H        11.08503288210462   -1.13167668273867   12.20937898360975
C        13.50085648453442    2.58642995284690   13.24049751042018
C        13.97805872374664    1.60876581141933   14.26221335337890
H        14.38960248133499    0.72411441674931   13.78031906456652
H        14.72190645945100    2.05868700226037   14.91334050043288
H        13.13069597372194    1.29019801160647   14.87018849988533
C        13.61744151284844    4.03966954822797   13.54307544958041
H        13.13851718988700    4.25555584392511   14.49638057301053
H        14.66900441889681    4.31037112761032   13.62546402018618
H        13.15599914348838    4.63071238135302   12.75780051169063

