122
CSD_code = SESHEF | q = 0 | S = 0 | Stoichiometry = C45H57AuF6NO9PS2 | MND = 2
Au        3.03867409341419    3.95446483235114    4.04606668849469
S         5.43444927520242    4.99025070790292    2.79373547202911
S         5.80772295236052    3.07041792855830    4.60487092706658
P         0.90152833551612    4.18942590659547    4.74323077304085
F         7.25224877223232    3.47614939395584    1.54316275724534
F         7.35883332089020    5.56770915024687    1.02739135522851
F         5.77396150846969    4.34141922240791    0.24425815183398
F         4.15742696661692    0.96422899854947    4.41248042357234
F         6.00673858750747    0.73826921285991    3.34306413082978
F         5.96619588411382    0.54522906987142    5.48935996710548
O         0.28454531654659    3.36201547112873    5.96673727382155
O         0.06057021592595    3.57430608788329    3.48097415673284
O         1.99472350886788    8.58269574924281    3.16807053267538
O         6.04185408091209    7.87463632445744    5.52279519318892
O         2.00172139397409    5.43802942589968    6.64159928704911
O         4.32393595830718    5.68584710613048    2.22246099615114
O         6.24117278892917    5.66417453119360    3.74759959803579
O         7.21537956603692    3.19914919660120    4.53386873474715
O         5.12803624788210    3.47773526337568    5.80082372163850
N         5.00656831346466    3.53625802048354    3.29711534333761
C         0.69363330947936    2.13810926897875    6.49213036740952
C        -0.25765644010042    1.23551250404157    6.98248402010346
C         0.22427675143254    0.04547385773255    7.52251576177756
H        -0.49093970630196   -0.66250742087502    7.89666285213116
C         1.57240400451304   -0.27661092973963    7.60192439603487
C         2.48297343335524    0.65482817148939    7.11960434467650
H         3.54459052457512    0.47321630508845    7.16160989303285
C         2.04402496857958    1.84151134225505    6.57292608085595
H         2.76006809665804    2.55301321697455    6.19062217996912
C        -1.75313244431738    1.52537478164376    6.92045104031315
C        -2.59888950279487    0.43151140371974    7.58431212722482
H        -3.64814612268061    0.71331534476478    7.52527944557311
H        -2.34352461363350    0.31650677709649    8.63509309665000
H        -2.48531007846458   -0.52416552779082    7.07823714998403
C        -2.18371588587296    1.60800557420317    5.44909008550440
H        -1.62862226471851    2.36624897155956    4.90810541664163
H        -3.24370980794812    1.84511055873537    5.38375264406442
H        -2.01454394017348    0.65166187314300    4.95728676893397
C        -2.05570629790035    2.83912300743471    7.65605537667216
H        -1.52993845631968    3.67959718053294    7.21759646756621
H        -1.75853247427856    2.75467326357795    8.69971668819256
H        -3.12338618706562    3.04568914992609    7.61967709000575
C         2.07915536052007   -1.58709372509469    8.18304783281089
C         2.98904821850583   -1.28079873952903    9.38072619148215
H         2.43865326749058   -0.72927569110828   10.14006376157082
H         3.84800263365543   -0.68712071142807    9.08241275822194
H         3.35114378787872   -2.20708863578135    9.82129319172288
C         2.87667821097902   -2.32943705115674    7.10147847105621
H         3.24004555174059   -3.27823687399336    7.49011544412391
H         3.73146494636841   -1.74698573052090    6.77078308287269
H         2.24441716781833   -2.52858888592085    6.23884721725747
C         0.94985935672241   -2.50396013311523    8.66094508339046
H         1.37591476865322   -3.42174835791003    9.06061818315697
H         0.28833575817804   -2.77232218678971    7.84071280807414
H         0.36962982931681   -2.03345362959637    9.45118556959505
C         0.74548355528691    2.79173500891992    2.55975457850687
C         0.99804953975863    3.22651054484957    1.25387625746583
C         1.80538426483391    2.40550372370143    0.47663346396908
H         2.05238955997549    2.73193996708806   -0.51759675112968
C         2.33953880670782    1.19651366088570    0.91351190450909
C         2.01084369945644    0.76990450347599    2.18997800726333
H         2.36670858794408   -0.16515007794796    2.58555871992096
C         1.23909898078499    1.57451282307404    3.00528611251857
H         1.00874362239191    1.26084935110034    4.01405898963009
C         0.43563818560582    4.53505262243938    0.71598377831484
C         1.06796466295493    5.71526499794217    1.46558656282557
H         0.77452575055379    5.72655297825274    2.51108624959161
H         0.73716145477389    6.65241046997936    1.02340704206587
H         2.15367809071812    5.67035873434694    1.41818402992117
C         0.72414647367945    4.72518794391279   -0.77738662706543
H         1.79068219495634    4.83037420785461   -0.95925830108646
H         0.23831405355436    5.63676214082461   -1.11900546806707
H         0.33275798680880    3.89740868186169   -1.36479227972618
C        -1.08867664102833    4.54585181238189    0.90206027776517
H        -1.53837528393324    3.71307282839908    0.36469410731498
H        -1.50294963867339    5.47356606857125    0.51350087380827
H        -1.35669514324494    4.46711811541515    1.95003181646600
C         3.28643973979092    0.42854099002413    0.00613277702086
C         4.53748020011850    1.29237357923644   -0.21081970886284
H         4.29253845257869    2.23170816633612   -0.69804785903013
H         5.25681747655683    0.76078803708643   -0.83003600026064
H         5.00548060580628    1.51980900998746    0.74524561505062
C         3.72766944681303   -0.90469794188688    0.61571876591067
H         4.38691546618420   -1.42006420000285   -0.07963288155812
H         2.87277127451027   -1.54856328284529    0.80971620216592
H         4.27714606500219   -0.74651793226930    1.53977443369509
C         2.60550516821789    0.13697787733321   -1.33822789508221
H         2.34721970247629    1.05162399505013   -1.86328638607078
H         1.69451411609444   -0.43656956109983   -1.18089949610808
H         3.27107757385970   -0.44092169062151   -1.97549758633235
C        -0.06933983067125    5.70570117024612    4.91850562482303
C        -1.45478689983190    5.60229699825356    4.90307229789096
H        -1.91181705332966    4.62453479668690    4.89031743669242
C        -2.23690587635536    6.74106123571582    4.89833287709558
H        -3.31343918186688    6.65814898810711    4.89719189601137
C        -1.62964694982432    7.98745540814765    4.88311575623074
H        -2.23551517651992    8.88148958044684    4.86981151507534
C        -0.25225021328887    8.09280306131486    4.88885487808313
H         0.21701433765355    9.06360509009436    4.88274894833738
C         0.55241952212661    6.95450749065071    4.90732095694558
C         2.01332868085398    7.08388745333965    4.97630524993855
C         2.71371777771285    7.98161197369431    4.15017695074644
C         4.06398684089096    8.19966279468419    4.35392052175471
H         4.62815363227651    8.88806484867094    3.74959140427571
C         4.75297320543206    7.52059841135748    5.35778415918912
C         4.08903039364053    6.57340364159836    6.13247888031172
H         4.62841171530951    5.99225849854562    6.85794037596011
C         2.73391133573161    6.35803037126556    5.93068530391688
C         2.70575440722288    9.19101032058566    2.11284132897083
H         3.19882643876405   10.11307846062148    2.43660915528999
H         1.95761179143583    9.43228087530282    1.35894864293939
H         3.44487971538383    8.50238059808672    1.69497777721328
C         6.85595846243075    7.10792240854875    6.38318077615606
H         6.51971920237490    7.18523015393178    7.42304239336292
H         7.85293042579378    7.53559269106001    6.29351560348926
H         6.87964930574544    6.06170142696917    6.06765571503767
C         2.58229441935956    4.89218652347389    7.80919882932728
H         3.46669408528555    4.29184521166571    7.57970603538092
H         1.81594642303051    4.25669334902391    8.25028750105013
H         2.84577828191805    5.68798632793477    8.51171037836445
C         6.53034846918273    4.56919171455375    1.31875980664494
C         5.46612144941421    1.22319004964452    4.45508932573715

