83
CSD_code = SESLOT | q = 0 | S = 0 | Stoichiometry = C42H34N6Ni | MND = 4
C         6.16615804162556   17.83254968668427   13.80124731719695
C         7.17547494154985   16.78497989318395   13.79625885166843
C         6.54986683393147   15.68408760589715   14.30003116448076
H         6.95268556814202   14.70556068051033   14.47671074120341
C         5.20402669088288   16.05326136882304   14.60964135357677
C         4.27137024954387   15.17670270709213   15.15183304211200
C         2.97751740522546   15.58255211102835   15.44269809212492
C         1.97569610661108   14.71783767333455   16.00920669171377
H         2.14194755324564   13.68643972213909   16.25429916702739
C         0.85585458416284   15.45704481559514   16.15196390813433
H        -0.10495033027949   15.18039413349089   16.53670737034723
C         1.17200029401734   16.77650297201773   15.67208544185896
C         0.55026451984368   18.93911002631610   15.24717955521926
C        -0.44219310530210   19.97985178482665   15.26579419295861
H        -1.44101193838316   19.84115227616327   15.62748565338747
C         0.14767607921275   21.08231884454840   14.75640721138936
H        -0.26449871454257   22.06148622830557   14.60528290033203
C         1.49916391479103   20.71752660602992   14.42568744132690
C         2.42188969436232   21.59188031906357   13.86778055378678
C         3.71361290212273   21.18276151666582   13.56566095433071
C         4.70995382427815   22.03822396255398   12.97969748642313
H         4.54324687578886   23.06661732301608   12.72269677506116
C         5.82901213577407   21.29583834711194   12.83743694136079
H         6.78576974684019   21.56794268843920   12.43910745821898
C         5.51630494314724   19.98529936958658   13.33944346466927
C         8.54898118777613   16.90319108089598   13.34260009613639
C         9.25342978482973   15.75798643122635   12.96185505358876
H         8.76044177257810   14.79743266480861   12.97979246656384
C        10.56611837347028   15.84584734583553   12.54287023738314
H        11.09664546722856   14.95184022015618   12.24808145222667
C        11.20251608879085   17.07590299739106   12.49691724323147
H        12.22974753867224   17.14279882330903   12.16953007769581
C        10.51323823892817   18.21784798352548   12.87087368224899
H        11.00589403699422   19.17886908169094   12.83660726903985
C         9.19950747728236   18.13674146869879   13.29103780810502
H         8.66080401561961   19.02361419076489   13.58152717352591
C         4.67150180006016   13.77548417968439   15.42137443763640
C         5.23462544490519   13.44046589035585   16.65282349410516
C         5.60689020044273   12.12532972289821   16.88529813783524
H         6.04443547348101   11.86174313000036   17.83794403521624
C         5.43135179216277   11.14280698288538   15.92131170544958
C         4.86924105443240   11.49819136548137   14.70312622975041
H         4.72799158981752   10.74198581941942   13.94370143784466
C         4.48578563597665   12.80359178778777   14.43779794427408
C         5.43289542214991   14.49609864165757   17.69808082965507
H         5.85217383980335   14.06798734893341   18.60497117318197
H         4.48493278878322   14.97452455328494   17.94230591163668
H         6.10768941567594   15.27043331183674   17.33358467060564
C         5.81828987299781    9.72147048845679   16.19725870644776
H         4.96543235793974    9.17605517654948   16.60297824587789
H         6.62563058301613    9.67258459233583   16.92414722279814
H         6.13288184418121    9.22078958787366   15.28441387722891
C         3.88176173817928   13.17882357839751   13.11840811578867
H         3.82573523676051   12.31599517414137   12.45966008377826
H         4.47594356870891   13.95240208740898   12.63266711326354
H         2.87691857846463   13.57650689451639   13.25885756236652
C         2.01950651686388   22.99067211926085   13.59015203688256
C         2.19140934693609   23.96616070887064   14.57292648679770
C         1.81077466001312   25.27003877214434   14.29785702995173
H         1.94236939427098   26.02965266174028   15.05558221413002
C         1.26536969777958   25.62101624779665   13.07047503450022
C         1.10282577291302   24.63515595454701   12.10811268645247
H         0.67947795502636   24.89497921918289   11.14805163907637
C         1.47296095018980   23.32091066888161   12.35026066531871
C         2.77951589556998   23.59602043490634   15.90088284910139
H         2.85957191113515   24.46821708087737   16.54458182538738
H         3.77139754972812   23.16374569215719   15.77205242396310
H         2.15858832959602   22.85096439451388   16.39777783446776
C         0.84066870899123   27.03330600875752   12.80377867831067
H        -0.15615266524070   27.20547986587615   13.21126461560958
H         0.80887119275752   27.23517075530690   11.73588631813312
H         1.52123966146510   27.73785338985682   13.27690394184933
C         1.29572564484175   22.26277478938376   11.30373603445910
H         0.65672804144577   21.46216586575486   11.67528984306536
H         2.25689326479865   21.82104346903494   11.04180434830305
H         0.84704802707310   22.67908393176743   10.40547418832297
N         4.98170072957232   17.36444204293991   14.29938791962607
N         2.47076749208571   16.83376411013446   15.24357042333013
N         1.72847677403678   19.40736635558245   14.73227856988388
N         4.22215780609456   19.93359317960862   13.77740076830984
N         0.27656704211468   17.73289700720489   15.68239086877475
N         6.41841685100545   19.03332414933969   13.34678513928209
Ni        3.35125241223570   18.38513585994168   14.51318839231446

