47
CSD_code = SESNEM | q = 0 | S = 0 | Stoichiometry = C18H16Br2FeN10 | MND = 6
Br        4.23872929166244    3.61009849271856    8.56374013402017
Fe        5.57472276054456    7.06625029851376    4.22077700217465
N         5.59466731101886    5.39755684995644    5.12220807055334
N         2.04224537518103    5.54099938636820    2.52880196693038
C         1.02003814222573    5.83383081007567    1.80331072150214
C         5.04475933213626    5.14179231044629    6.30951690877426
H         4.60079130859432    5.98758146731956    6.81163523881684
C         6.14699173936397    4.37073695169828    4.44585306736402
C         8.35937909222288    6.35627898858942    3.94406823097458
H         9.26098985482635    6.17892321038603    3.34466325471202
H         8.35642582599736    5.64817230589467    4.77697025392513
N         4.25049692304384    6.34012054367283    3.03967112080523
N         7.13151188142931    6.15005450826431    3.17176303443201
H         7.24814419523752    6.50901892015859    2.22899156579177
C         5.01657552802633    3.87177831714545    6.85663752599163
C         6.72773312802620    4.74610255187985    3.11071402461156
H         7.55340043819786    4.07859806403864    2.83110311545702
H         5.93043080807058    4.66614860219466    2.36694318479149
N         0.07700884773528    5.99550566945441    1.16132658559551
C         6.15276430271478    3.07718866320576    4.93400597456803
H         6.59752737967851    2.28358038933953    4.35417230131813
C         3.13106822664501    6.05493665233307    2.81014942599006
C         5.57384076978058    2.80407260322161    6.16534771489791
H         5.55468967612053    1.80608514972410    6.57127695060210
Br        4.25716389132860   10.50382256950017   -0.14094089391807
N         5.59406491113256    8.73170550142074    3.31607552608128
C         5.04840588188206    8.98274161374289    2.12567434400066
H         4.60159522264862    8.13590643366921    1.62786890679216
C         6.14897165191109    9.76029463561557    3.98774896624723
C         8.35954831955253    7.77755890991370    4.50123529400967
H         9.25966780705574    7.95364710357680    5.10320595903156
H         8.36003694251357    8.48569984131047    3.66832574752772
N         7.12973135039622    7.98539845651695    5.26994143234390
H         7.24377838071110    7.62885391077027    6.21391518193508
C         5.02832407320169   10.24929506205566    1.57040839031605
C         6.72496175943287    9.38931811366195    5.32609498760600
H         7.54911017852647   10.05809779027090    5.60704712760914
H         5.92477752353429    9.47040456583468    6.06666600521409
C         6.16256820358286   11.05061874758447    3.49138464731480
H         6.60962250487375   11.84575302384260    4.06735377551098
C         5.58898213019264   11.31867328754352    2.25638455357555
H         5.57648039448997   12.31397299195953    1.84368091802465
N         2.04377233885823    8.58433218846275    5.92534411704931
C         1.02160770614666    8.28568025195863    6.64838005628179
N         4.25065080940460    7.78903064731083    5.40349411864471
N         0.08081711123019    8.11950807539467    7.29249865134455
C         3.13132876887823    8.07227457145754    5.63596481288667

