93
CSD_code = SESPIR | q = 1 | S = 0 | Stoichiometry = C25H60ClN2P4Ru(1+) | MND = 6
Ru        0.12211441120780   18.64296070563727   17.21722675810278
Cl       -1.90215071674381   19.28070586643828   18.24663839029886
N        -1.02850189822506   19.33065306835752   15.50558408220228
N        -1.26705980204481   17.93091366134493   15.58404632719487
P         1.36744478954228   20.44539545240619   17.93911871092528
P         0.74756648840197   17.07139432568008   18.77812312291250
P         3.20794555391338   16.40151637532753   12.09115136315249
P         2.02605185972522   18.05031267504883   16.12648683742701
C         1.90035189993802   22.93903464421931   16.54186616967684
H         2.22839673927121   23.43945441004852   17.44647661285430
H         1.44904611570498   23.68878601662317   15.89346578394282
H         2.77012037788768   22.54005185849539   16.02568368909635
C         0.85814275049809   21.86107307592750   16.82809514950713
H         0.63905956854227   21.34874242155361   15.87667261691279
C        -0.44067185241124   22.47171536127230   17.35216561790326
H        -0.93980162118312   23.03711118301975   16.56719445843904
H        -0.23884383425784   23.15287790029634   18.17432712111613
H        -1.11792018209974   21.69468618264818   17.70720730764166
C         2.35851585565683   22.29927581339891   19.90763017812842
H         2.56067412740680   22.41807078926781   20.97086693607275
H         1.78389858601960   23.16359918161620   19.58677794639433
H         3.31227595710367   22.28708072444920   19.38613826795701
C         1.56973434604110   21.00971470503363   19.70212499027378
H         2.15421434261480   20.17806920640256   20.12748612978654
C         0.22778220822708   21.07042234634871   20.42538519077099
H        -0.30146756278351   21.99038568515977   20.19570797846511
H         0.37876581790900   21.02962699056206   21.50189086213538
H        -0.39998286116165   20.23306974681882   20.13247493592183
C         3.13581715359580   20.15739330732201   17.47079599112917
H         3.69002537318827   21.09733728093337   17.46879928628555
H         3.56249189774953   19.50904224713122   18.24268381113634
C         3.20729490887677   19.46679868127196   16.11651060802685
H         4.22171149900368   19.11920766704122   15.89892953167877
H         2.89260416369389   20.14712852471954   15.31818915699648
C        -0.63288441977068   17.54225840867922   21.18275436711865
H        -0.58538610744296   18.09328140124619   22.11941864732945
H        -1.10817837632075   16.58571474122223   21.38443235883691
H        -1.25568969643961   18.10208174490510   20.48895194390845
C         0.77307422228143   17.33801748983023   20.62130875135361
H         1.32390308862625   18.28356405791125   20.71980773190793
C         1.50789631468580   16.25766591327977   21.41286180377616
H         1.06438020840357   15.27748087301973   21.25572030113136
H         1.42550190971294   16.48899783843126   22.47314489140507
H         2.56466825801597   16.20884988143685   21.16548906010418
C        -1.65871454381459   15.70873517657090   18.53964427063993
H        -2.19434946037011   14.83887380284829   18.16395218317019
H        -1.90541075405280   16.56781605836195   17.91608643201284
H        -2.01410651619552   15.91085483310322   19.54442243930460
C        -0.15293257487817   15.46121395716889   18.51040497816311
H         0.12998339429110   14.77610869383624   19.31731718986578
C         0.25814881446789   14.85935529243395   17.16811603053897
H         0.25692443186460   15.63436676875276   16.39643675057807
H        -0.44501727082161   14.08271464260490   16.87336470309487
H         1.24472729927083   14.40637269651111   17.21987398948609
C         2.53023689520311   16.62958515794679   18.49420724991231
H         3.09979888125228   17.33380750959884   19.10879069485039
H         2.71235369841267   15.62173779558593   18.87485931888690
C         2.97013228168677   16.74291925122894   17.03706454203222
H         2.78665659896086   15.80431022450738   16.50892817914616
H         4.04100965803832   16.96104543507647   16.97367935203077
C         6.10667669281281   16.53854783480312   12.05053434823065
H         6.13002696692850   17.00033800745853   13.03538638181265
H         6.96916111792366   16.89883674341121   11.49248020850559
H         6.21340316880262   15.46322862949286   12.16584831487621
C         4.83432604895826   16.90109856536194   11.29386453621845
H         4.83068644444742   16.37146532612012   10.33324211370008
C         4.77893730138613   18.39789226186814   10.98955738472345
H         5.60371199193188   18.68079929955488   10.33901980397438
H         4.85371014226508   18.99096173572999   11.89963538302943
H         3.84586273772525   18.65146608041717   10.48872593515392
C         2.34539387543716   14.02506676026629   13.27672092398626
H         2.47803445712131   12.95607134894710   13.43359935120750
H         1.40942925655565   14.17334554868543   12.74031686156460
H         2.26825029771650   14.49743815621071   14.25465519570628
C         3.51538821318007   14.58413881859395   12.46964296950030
H         4.43347530320709   14.48542691645878   13.06037193171954
C         3.65696241368502   13.81251688120725   11.16161465283465
H         2.78544672404094   13.97591171793390   10.52949005678887
H         3.73668814054820   12.74549243009736   11.36233776605600
H         4.54337411508656   14.11850331434449   10.61158692020343
C         3.45030921550236   17.10856377562710   13.82209468095011
H         3.96371837889514   16.38575319804833   14.45789665711623
H         4.06138005340616   18.00744200241014   13.74421898878374
C         2.07612061361170   17.46757747955667   14.38140175110778
H         1.41484137277709   16.59504586137470   14.32072902040986
H         1.63235601118624   18.26212370782431   13.76841472832110
C        -2.67209903137992   17.55426714921031   15.44668889561916
H        -3.08904164620593   17.90148608560717   14.49440167912004
H        -3.24102088848640   17.98902218013016   16.27082975761898
H        -2.75913582724949   16.47074802644730   15.49601003220818
H        -0.96991711129078   19.69378771194268   14.54613565939903
H        -1.80316063010223   19.80959030865949   15.99784376090666
H        -0.72656861906755   17.46410840819843   14.84914326860648

