83
CSD_code = SESQAI | q = 0 | S = 0 | Stoichiometry = C42H34BClO2P2Pt | MND = 4
Pt        4.53645960894820    3.91503381515634    3.70141499975292
Cl        4.56687331858000    3.82691843459968    1.27135366818408
B         4.50593866385517    3.97499303815101    5.72181893727579
O         5.51738875606228    3.50878825495452    6.56035544845396
O         3.46341398068255    4.48246896668134    6.49617395595675
C         5.09617016756455    3.72360852631087    7.82986897042978
C         3.83314867784867    4.32805063454167    7.79026066207916
C         3.16147256108794    4.66839293744253    8.94537158695250
C         3.79125157787646    4.37940729925695   10.14793957920282
C         5.03916965766724    3.77463214526038   10.18723104955717
C         5.71873769008291    3.43474278338815    9.02578774059384
P         4.87409333307837    6.15117373914944    3.56363485692188
C         3.46699137955479    6.78669031413610    2.61387840260983
C         2.27942303316935    6.07350007618893    2.77076737058997
C         1.15033928306327    6.44745143922064    2.06915493887717
C         1.20391302600255    7.53143723411290    1.20532014661828
C         2.38478593320919    8.23630308510641    1.04374435781252
C         3.52074868171447    7.86676936064453    1.74443475572854
C         6.36817257407633    6.84978700893596    2.80762623679988
C         7.15494048015631    6.04083358865228    1.99596048580848
C         8.28926347463774    6.55972633804971    1.39744754624233
C         8.64185706029727    7.88238349252855    1.60944315464994
C         7.86267666357930    8.68890869945762    2.42490732945308
C         6.72830983939450    8.17695253355225    3.02709859937071
C         4.77961229313679    7.03115246346010    5.15531871847816
C         5.82774958903424    6.81834206082041    6.04851909444186
C         5.75735154061037    7.30917546150213    7.33651775880906
C         4.63681369698838    8.01727434878850    7.74491548366225
C         3.59779133257088    8.24003696347904    6.85860916363322
C         3.66331511952421    7.74572412302098    5.56659705953891
P         4.19159453846162    1.67414302835910    3.69631406469265
C         2.70142195751232    0.94722936375116    2.95978200901247
C         2.32927417568723   -0.36413719038289    3.24459943359948
C         1.19446143328788   -0.89754515645001    2.66233982091944
C         0.42632795807853   -0.12771318844106    1.80215078522134
C         0.79127876190254    1.17924805577480    1.52419608111939
C         1.92639763268830    1.71923638252928    2.10225948352049
C         5.61001801250029    0.97016467062400    2.81471213160850
C         6.80225821694579    1.67857581003323    2.95727531987972
C         7.94181148463683    1.25276994030423    2.30383709701985
C         7.89372004315039    0.12226812387969    1.50143647501225
C         6.70789809165689   -0.57706343301387    1.35259460311987
C         5.56162004070671   -0.15631662607638    2.00609609766441
C         4.24549165052693    0.88949489996038    5.33911673679291
C         5.34932460143501    0.19800987850897    5.81795532660496
C         5.38220721124195   -0.22103793675379    7.13752022246390
C         4.32302842684227    0.05465313628582    7.98419928982068
C         3.21512962290357    0.74034549934296    7.50871303353259
C         3.17705916567042    1.15568565410531    6.19307483707671
H         2.19147773724522    5.13771480879138    8.90964229054979
H         3.29618419602651    4.63045381372471   11.07415234161540
H         5.49423305281768    3.56345090248828   11.14341891652440
H         6.68849812322056    2.96429514282882    9.05112208870714
H         2.26789952389545    5.21707372906699    3.44670701602795
H         0.23092708977828    5.89193906082486    2.18400637838661
H         0.32455353886910    7.82043243587994    0.64842170514692
H         2.42461153614704    9.07310488819667    0.36152645265023
H         4.44741273796425    8.40563353129614    1.60507316615294
H         6.85925072278653    5.01374002626536    1.82752955225451
H         8.89804148886279    5.93240817359294    0.76319145228039
H         9.52665017352736    8.28812581181371    1.14091022643377
H         8.14111980354694    9.71969187296388    2.59084121499112
H         6.12223645923816    8.79897112231392    3.67281558180079
H         6.68730376829618    6.24544364235298    5.72268979811151
H         6.56563083930664    7.12898784508336    8.03015529975322
H         4.57339426307843    8.38690295988636    8.75765310665051
H         2.72468937067139    8.79074988180953    7.17755385727639
H         2.84317815451565    7.90554268743175    4.88051100255348
H         2.92607015427832   -0.95663897125312    3.92577290033557
H         0.90640929226202   -1.91605974138773    2.87963731165682
H        -0.45955331589389   -0.54973038822524    1.35035116659452
H         0.19104962895231    1.77798209050457    0.85510416268018
H         2.23169337910698    2.73385203161807    1.88287657189668
H         6.80891220605290    2.57284359480425    3.58220384088427
H         8.86531165210887    1.80360775230308    2.40789947443649
H         8.78148821017935   -0.20753319387947    0.98178009860315
H         6.67241313503759   -1.44995968114928    0.71695336565954
H         4.63144920897706   -0.69143199305662    1.87604708910215
H         6.18510358210896   -0.00286454657050    5.16218867600037
H         6.24549563503710   -0.75431654749341    7.50856062332264
H         4.36078773787445   -0.25603047372903    9.01779195775632
H         2.39128559252014    0.96239086434075    8.17120424151313
H         2.32719530152899    1.71015678766219    5.81426216462641

