85
CSD_code = SESQEO | q = 0 | S = 0 | Stoichiometry = C24H56P4Ru | MND = 6
Ru        4.22844918415237    3.65828068685638    2.68952901986406
P         3.60030203883021    5.79235688516495    2.11849799840029
C         4.15100544891904    8.56281974512813    1.35383016163376
H         3.39198519129286    9.00948799006175    1.99200201571430
H         3.71923095016457    8.38462184490429    0.37199698695600
H         4.95371254441672    9.29137264738458    1.23993155003558
P         6.20396357788770    3.27402060049351    1.59196977807986
C         4.72698030216196    7.29004718973239    1.96827709398457
H         5.51402181798599    6.92133520741656    1.29988552812322
P         3.68570422316494    1.48238616364620    3.26004865428918
C         5.36892589505444    7.58372598261875    3.32323190848201
H         6.34450630929395    8.05162712916368    3.19691898034452
H         5.49247198700357    6.65410032683739    3.88331225468548
H         4.74846315751765    8.26161367927717    3.90533413804161
P         3.28311288987249    3.12453817316264    0.79632428176767
C         0.84048018060097    5.81006954620050    2.72978495089923
H         0.97987996256856    4.73225302423042    2.80204939658734
H         0.48074986971315    6.05380311647185    1.73230696102723
H         0.06829558918795    6.10084023450279    3.44130083350993
C         2.14814445504510    6.52729365785858    3.05808848611376
H         2.06155686565845    7.57230458102396    2.73546246008910
C         2.40342802356680    6.47681127930037    4.56076153926180
H         1.50903684039929    6.77648396454019    5.10671662121694
H         3.21671734407698    7.13316162148221    4.85275816119013
H         2.66984965855643    5.46097885731233    4.85060871798361
C         2.88325953134264    5.80357212693184    0.37855096276565
H         2.13050114505288    6.59341692778351    0.30092937287893
H         3.70643495672946    6.06754748578345   -0.29304472372337
C         2.30610306730459    4.45046061269652   -0.03129791358974
H         2.30157882890899    4.32305042310673   -1.12059028323483
H         1.27908748701124    4.34176318541943    0.33253255911320
C         6.61891072447497    5.14325952767819   -0.48105655656559
H         5.59937377767125    5.40888247332115   -0.20708073120804
H         6.58461694766522    4.46991730837325   -1.33594431991952
H         7.14044138246984    6.04788449092828   -0.79476008431723
C         7.32640909751245    4.49401015016927    0.70375621302368
H         8.17100808560590    3.91885389074874    0.30997295435656
C         7.82894306680882    5.52280654918301    1.71817526421176
H         7.96761112730204    6.49981343903066    1.25636990930581
H         8.78508319916355    5.22263477994688    2.13990388549745
H         7.11180157445736    5.62027370303047    2.53389793969313
C         8.70167550366419    1.76007516278327    1.59692140070711
H         9.40375298476566    2.57221574311905    1.42118359831019
H         8.39632630643699    1.34474648952378    0.63876819076231
H         9.23429470257240    0.98215014796724    2.14413979361947
C         7.50813549730118    2.21990164526728    2.43074035052724
H         6.92672712580354    1.33124715904624    2.70051943094671
C         7.97754508264904    2.86455187468750    3.73291588987646
H         8.38749210394270    2.11022691366342    4.40341123987833
H         7.13768192682716    3.35439043243897    4.22647714484781
H         8.75084864629807    3.60563523200119    3.55106897901634
C         5.79027948735187    2.15229749762004    0.14999328737744
H         6.60248376666025    2.14981023148513   -0.58347070043182
H         5.70925036422258    1.14408722561661    0.57427281182204
C         4.46778385411880    2.53827325019895   -0.50661232719318
H         4.03729605676581    1.70023386780449   -1.06804970972476
H         4.61191634291955    3.37262024595702   -1.20026073178774
C         5.68771160467539    0.31219220157558    4.82465014263819
H         5.19055516475720   -0.02342508554300    5.73228265462657
H         5.86393074805279    1.38579559630259    4.90113340023493
H         6.64682323399748   -0.20154814641204    4.76242303926661
C         4.82168072835377    0.01284161839032    3.60267167051843
H         5.46442525276871    0.00180311345050    2.70874608124786
C         4.20173590416587   -1.37785946430804    3.71752530501606
H         5.00496377706487   -2.10892239760490    3.81325333251875
H         3.61353901290438   -1.64148963034472    2.84236314547257
H         3.57284037133356   -1.46728826416762    4.59996014461375
C         2.91882840592654    2.00722943293080    5.88790315116047
H         3.18099004450661    3.02962832175148    5.61595804545036
H         3.79662075304504    1.53965428257485    6.32303771621796
H         2.13384223028915    2.03224913350228    6.64298210742922
C         2.43893385022037    1.26219658242980    4.64625262372937
H         2.38776863757305    0.18680468104077    4.85503211174226
C         1.03929335735173    1.73812376444723    4.26989320730018
H         0.37984185734765    1.65097079701437    5.13311658337636
H         0.61029549329123    1.14845120017718    3.46232586881537
H         1.06762955726666    2.78419174826936    3.97235547385470
C         2.77343176971584    0.69314465046928    1.82113008176616
H         3.53940528605396    0.17046097628528    1.23502956023009
H         2.06070567619845   -0.04999270121663    2.19054625411845
C         2.09674162274933    1.72901420349289    0.93451087681278
H         1.19956286436050    2.13077028409943    1.41729053675575
H         1.81926181752476    1.31732447903306   -0.04380052901035
H         2.91003145108058    3.79969016902077    3.43054754380477
H         4.91408146872969    4.04374412530178    4.03811829526386

