66
CSD_code = SESVIX | q = 0 | S = 0 | Stoichiometry = C28H31ClN2O2RuS | MND = 9
Ru        3.17332051776777    3.03077478499263   -0.08694027063241
Cl        5.48284561985517    2.99061222063133   -0.33991137624205
S         3.74315916629084    3.10681918665388    3.05898660408269
N         3.33075858092704    4.92204305837607   -0.67384630887475
N         3.48511310746709    3.97989591931158    1.69078401083592
O         2.68819396438992    3.35176062970174    4.01061670370825
O         3.89002628620881    1.75236916640088    2.59576722405819
C         3.31222004036191    5.33658049331366   -1.92851583164889
H         3.20658870917735    4.58106218126549   -2.69622925958959
C         3.43983600416703    6.68618604326319   -2.27491284314437
H         3.41410297475742    6.95980625621974   -3.31806431251871
C         3.59318359340007    7.63457539836296   -1.29775156388269
H         3.68427031028886    8.68188823435598   -1.54232202637798
C         3.64790478415770    7.22702510108883    0.05369259014565
C         3.82968410233207    8.08562097219601    1.14984808708528
H         3.93243893476365    9.14508142311346    0.97479365212828
C         3.87960366066484    7.57374510153754    2.42770025608700
H         4.01215843300539    8.24743359361909    3.26160153567340
C         3.76957223987494    6.21124575186213    2.68902664962670
H         3.79998349768947    5.83813596548430    3.69895347641534
C         3.59770710081027    5.32140326566983    1.63355114550639
C         3.51781799212461    5.83979436221656    0.30683842287144
C         2.21867058944534    1.98590172884583   -1.88968193480937
H         2.31633081963893    2.14271879608138   -2.95973211077055
C         3.02686824313146    1.02942906399058   -1.24507331222973
C         2.74916723311944    0.71202664426724    0.11399497395883
H         3.30989329120538   -0.07205821088616    0.60626512309190
C         1.74751433621039    1.38416291893052    0.81125178459016
H         1.53502662199918    1.10022785199274    1.83455625477339
C         0.98978443842792    2.41773665264407    0.20654249017987
C         1.23803994882692    2.69959697879708   -1.15594881703851
H         0.60410819894561    3.40675563601745   -1.68220979575610
C         5.28940021522522    3.67739378150359    3.75132752432292
C         6.40550424682112    3.76583323604345    2.94417151335323
H         6.33908945381846    3.49310019505661    1.90205183604037
C         7.59692282279039    4.20440226710457    3.49511500532479
H         8.47517999605302    4.27859594937449    2.87111775253409
C         7.67804731642615    4.54555815540513    4.84107879646116
C         6.53944169330595    4.44165373505372    5.63367676904793
H         6.59216023608769    4.70009012561466    6.68146168619898
C         5.34327500240252    4.00718728987199    5.09169902856699
H         4.44566198040640    3.91999549293635    5.68424409165232
C         8.96076429884977    5.06947715303725    5.41670025370233
H         9.81083555688076    4.62601014716221    4.89504332384273
H         9.03192749630318    4.80688787014682    6.47402186296978
C         9.02753340801080    6.59538300986549    5.27340303142893
H         8.18106718727837    7.04063312202698    5.80055733919962
H         8.93413519793339    6.85783205597039    4.21760545596979
C        10.33063798756799    7.15477996058143    5.82903351283084
H        10.43274776955581    6.91146658392990    6.88441165247615
H        10.35739884112458    8.23658024805193    5.72224229438933
H        11.18290009956684    6.73660212749109    5.29801532702771
C         4.10266404169452    0.29426741700038   -1.98406889679146
H         4.11306745238732   -0.75695725430706   -1.70295702569513
H         5.07258257938616    0.72396497002110   -1.71948186721317
H         3.97240202717953    0.38092874220338   -3.06110822248148
C        -0.12917262374887    3.09267173929188    0.96413878820869
H        -0.06760105510454    2.77108788900201    2.00938496808793
C         0.01657797789797    4.61529626932595    0.93877296100875
H         0.97697417121399    4.90171455453607    1.36474834931332
H        -0.77023582845355    5.07391523228571    1.53295658412103
H        -0.04964624776615    5.00583635591022   -0.07522723552779
C        -1.48458133805426    2.65732989724656    0.39679524924908
H        -1.59986759965660    2.99153915821029   -0.63228801584525
H        -2.29003809015080    3.08569082529019    0.98794383929888
H        -1.57864961465037    1.57359452740255    0.41978124563352

