104
CSD_code = SESWUK | q = 0 | S = 0 | Stoichiometry = C56H41Cl2N3OPt | MND = 4
Pt        4.16803111308954    6.53198420456621    4.74778476632201
Cl        5.59866226204894    4.91138308159391    4.09288671445555
O         1.01192033776533    6.53260751527026    5.80669052372683
N         2.85021513103505    5.19230375121610    5.39294392699849
N         3.93940156988147    6.53252960735696    7.52567972106068
C         8.38803403843786    5.83747984835504    8.23019389446400
C         7.21603270666080    5.12280300657144    8.05864456833658
C         6.02694190780220    5.82257427201758    7.91565066186226
C         4.69096117710941    5.37714408235924    7.56632698405860
C         4.17017142740425    4.17517551408107    7.12626812434919
C         2.97941904913233    4.25458856057342    6.29750017174982
C         1.74345101311988    3.48584557453049    6.38595910856205
C         1.40609066791877    2.33085189426754    7.07104998155249
C         0.11585835208077    1.84414659114181    6.92541439893822
C        -0.81588667849006    2.49852403894865    6.13285953395160
C        -0.49096819336806    3.67351861670401    5.46290287686742
C         0.79112964911313    4.14967945838806    5.59133424567216
C         1.44295530043897    5.39120621209136    5.05087116830285
C         1.27745591592384    5.86199036740176    3.61419824464160
C         4.74023720823334    2.87036597634927    7.42234019298034
C         5.27546749550216    2.58056442114778    8.67778338739999
C         5.78985255465553    1.32721519107461    8.94695104979197
C         5.78755493208558    0.33036906439711    7.97879966665451
C         5.24832843791520    0.62104825779637    6.72830376904940
C         4.72776401926882    1.86695173215941    6.45071024398310
C         6.34639419193747   -1.03006044836882    8.26125740600000
C         1.24570686527850    4.89724942628525    2.51644057270681
C         2.34007111658794    4.05926963095802    2.31908025365196
C         2.32930348840587    3.13353557360533    1.29474094079126
C         1.23066440949096    3.00947370168948    0.45263370678426
C         0.13845616499219    3.84188356762044    0.66246621584276
C         0.14212580766988    4.77609267612951    1.68044734081751
C         1.21210223535984    1.98795773749175   -0.64328504350644
H         9.32105685194123    5.30632060817035    8.34502073433548
H         7.22867463004653    4.04571417869669    8.01262815913967
H         2.93915212964623    6.53254401927143    7.39007023862918
H         2.13154327683175    1.82097963056129    7.68601762997873
H        -0.16881619324647    0.93742394235494    7.43822178948067
H        -1.81109897217058    2.09147947509973    6.03607653300857
H        -1.21877536238162    4.19027985721659    4.85701786213966
H         5.26834418936167    3.34009024088683    9.44658926934869
H         6.19774083137386    1.11894451199117    9.92622542100233
H         5.24422716614876   -0.14262863038681    5.96389933545538
H         4.33582069374787    2.09025148077690    5.46996496002669
H         6.75714849334882   -1.08378856818207    9.26640484736690
H         7.13456016624639   -1.27018330470346    7.54874330440111
H         5.56926458928436   -1.78773518971746    8.16197925479519
H         3.21535870124113    4.16166385511899    2.94649889366862
H         3.19281313996521    2.50202909647098    1.14482841033463
H        -0.72562472722065    3.75941242366064    0.01814534586859
H        -0.72080226140639    5.40576267052431    1.83595961220822
H         2.22268664728394    1.73918100086414   -0.95742246399848
H         0.65333773746683    2.35167082847659   -1.50300864542254
H         0.73172924682090    1.07339944614646   -0.29258810157430
N         2.85069558002097    7.87275452503021    5.39249959231050
C         8.38804561819379    7.22753157902625    8.23021196295703
C         7.21605408901354    7.94220687733437    8.05865581860142
C         6.02696949163227    7.24243113840569    7.91565078924400
C         4.69103241259678    7.68788093366696    7.56624417037452
C         4.17035353708200    8.88986617117248    7.12611555534031
C         2.97974987383043    8.81048832485468    6.29715399580912
C         1.74367498123304    9.57911091885255    6.38583450697973
C         1.40622321782313   10.73401486514303    7.07107822157913
C         0.11601674739296   11.22081033420952    6.92537050771897
C        -0.81571249644408   10.56649683232999    6.13275910134611
C        -0.49077694640063    9.39149926111453    5.46279623497378
C         0.79137008462296    8.91535864118359    5.59113996949260
C         1.44327589124628    7.67382931041664    5.05075159642175
C         1.27748862652810    7.20295915145444    3.61416380787133
C         4.74035672692606   10.19467484525573    7.42229874504875
C         5.27547904156983   10.48446069472394    8.67779058640309
C         5.78986870076490   11.73779800262563    8.94698950698142
C         5.78761526667783   12.73466555614795    7.97885515144451
C         5.24839757489201   12.44403175968856    6.72835016588546
C         4.72787055411807   11.19812721895460    6.45071241811665
C         6.34649594531138   14.09506450493743    8.26135165285806
C         1.24570639627121    8.16770928002787    2.51642883707572
C         2.34002061363864    9.00574209208509    2.31911232413613
C         2.32922377781092    9.93149222595969    1.29479151693119
C         1.23061269360473   10.05546343793969    0.45263605816009
C         0.13844721103940    9.22301374797899    0.66243545714743
C         0.14212362623068    8.28884608728172    1.68044527238159
C         1.21204635627246   11.07694456720575   -0.64330894180388
H         9.32106996208402    7.75869132268225    8.34503328100825
H         7.22869525500015    9.01929507330217    8.01261198542495
H         2.13166758745168   11.24386376607917    7.68606711947111
H        -0.16873181841694   12.12738998307768    7.43840074715603
H        -1.81099176275996   10.97343057680363    6.03617978490301
H        -1.21864552106946    8.87468946663706    4.85702706710467
H         5.26832256579116    9.72492587963103    9.44658501866979
H         6.19773747037179   11.94604680294212    9.92627417645639
H         5.24428315787782   13.20772696279507    5.96396557422967
H         4.33583124325316   10.97488595735895    5.46999457736782
H         6.75744155581163   14.14867027082828    9.26642724451319
H         7.13451867302408   14.33525969790206    7.54870652814616
H         5.56934977388994   14.85275361333100    8.16231634560950
H         3.21527578312739    8.90342341475204    2.94659305822521
H         3.19266526525815   10.56315882366113    1.14497817023232
H        -0.72560556573740    9.30542607622113    0.01807779976582
H        -0.72074633824029    7.65905155937983    1.83588709411211
H         2.22264363553737   11.32571662919376   -0.95740603706300
H         0.65333054185136   10.71312188383457   -1.50301865538261
H         0.73163244496967   11.99152594594592   -0.29272301691664
Cl        5.59618424861965    8.15460912955455    4.09330584616439

