39
CSD_code = SESWET | q = 0 | S = 0 | Stoichiometry = C16H14O8Zn | MND = 4
Zn        3.58695042964886    2.64093393520333    4.66789379401696
O         2.09087920873472    4.22339993502778    4.76943776049558
O         6.82610509693898   -2.06545523952698   11.33341996068682
O         4.94183299018402    1.45786178886281    5.53423615497072
O         3.34262356332528    2.40891018727848    6.65985175571709
C         5.90716962303484   -1.28960165822147   11.28190001779549
C         5.49530315269402   -0.53819006655824   10.08760549048856
C         4.41700738197601    0.34577798277557   10.14497863931747
C         4.03628061163517    1.04615787490258    9.01885136115153
C         4.72955112763075    0.86897257460900    7.82393746375926
C         5.80593327860228   -0.01291982355996    7.75997987579450
C         6.18640401469518   -0.71158871985436    8.88628840823135
C         4.31208127672972    1.61588684447484    6.60853548797007
H         5.28404861070282   -1.08187701989104   12.17509261688432
H         3.88302131081395    0.47644814309368   11.07538840570647
H         3.20443669424825    1.73312547943765    9.03875724977792
H         6.32195928642567   -0.13508046171598    6.82022478684287
H         7.01614061292657   -1.40242862727497    8.86506764687864
H         2.15996190306014    4.51579142549913    5.68528598496822
H         1.26475587060900    3.73099899648020    4.70532157140435
O         5.08243923272468    4.22395117394247    4.56727136443576
O         0.34670497941803   -2.06663172920301   -1.99597207469595
O         2.23224070438509    1.45710451549373    3.80236737559449
O         3.83030234003663    2.40922934330520    2.67608152631171
C         1.26475670853330   -1.28970470062511   -1.94522896631169
C         1.67735007295920   -0.53862856096289   -0.75095562831061
C         2.75486794186476    0.34622171932191   -0.80893907952581
C         3.13590199112463    1.04661786482156    0.31710121083035
C         2.44364528807467    0.86862167744789    1.51246307368922
C         1.36808392242014   -0.01426500169645    1.57705279303619
C         0.98739666674912   -0.71301550527749    0.45089710044405
C         2.86115110367132    1.61582797857884    2.72770530895807
H         1.88723471738764   -1.08163267225916   -2.83880197524845
H         3.28805256360779    0.47757759678913   -1.73971138776209
H         3.96712736511527    1.73431696029955    0.29670243171286
H         0.85291151875083   -0.13696871699948    2.51720728195295
H         0.15828070367376   -1.40459041470032    0.47248859404996
H         5.01442328650726    4.51586209411834    3.65131055492442
H         5.90898284838089    3.73268282656219    4.63300606305643

