67
CSD_code = SESXOG | q = 0 | S = 0 | Stoichiometry = C30H30ClN2O2PRu | MND = 6
Ru        3.84373745196378   10.68717144431262    9.65491023713449
P         2.05649652557592   11.67306491737959   10.72929311140928
Cl        4.78806505626287   10.01697875505099   11.71614258123287
O         5.28636988127682   13.29534342738967    9.75822642438886
O         2.59819582378375    8.97275303397697    9.65349738241235
N         3.24668814507600   10.83937082947254    7.72496878341692
N         5.50847707927692    9.66048160241643    8.59049626936615
C         4.76834578050425   12.26611097115092    9.70768239389092
C         2.18757902705014   10.34460781582762    7.17970591464798
H         2.09194622921582   10.40521984174541    6.08972234861288
C         4.40044260617508   11.07565515806158    6.89550773604331
H         4.89694760472229   12.00331203043035    7.19861666752816
H         4.13645658814034   11.13545168348269    5.82938355535614
C         5.32259274683166    9.86472986941813    7.14107352579894
H         4.82995541153652    8.98383514331426    6.71556272509443
H         6.28569329935125   10.00112046371646    6.63583182544832
C         6.81064020188458   10.18167299259182    9.01486201434187
H         6.87652638381619   10.13899892371962   10.10333347381070
H         6.92496344324899   11.21852528063518    8.69985555825205
H         7.62562168408215    9.58676193282000    8.58249464938464
C         5.44761200861072    8.23991840456072    8.93767186668141
H         4.47044270848044    7.82976995009611    8.67617049857354
H         5.58110117166851    8.13749521135477   10.01634877957839
H         6.23179660439498    7.67058301233737    8.42174428062969
C         2.45613191091867   13.24793319851944   11.55978455297848
C         3.50993802944718   13.20983510823799   12.47073002403785
H         4.04912035352758   12.28248185046192   12.62066671691593
C         3.86649821870534   14.34819337391472   13.16790585689710
H         4.68693093339404   14.31343834956752   13.86908063746893
C         3.17498679024845   15.53184851242832   12.96385669293091
H         3.45550605510646   16.42357050187440   13.50515362405433
C         2.12331127882796   15.57142959292210   12.06458008918486
H         1.58088084968772   16.49251441511188   11.90579262387742
C         1.75914385112251   14.43413094728480   11.36417852697122
H         0.93601315745137   14.47468414025151   10.66437140107455
C         0.71371436926021   12.14221428246581    9.59760331034003
C         1.07304314328668   12.98178241990967    8.54372485677349
H         2.09849380954230   13.33081239494575    8.48176353631444
C         0.13730496451210   13.35466863583072    7.59950294757649
H         0.41878706766691   14.00808482045212    6.78607606464458
C        -1.16486134364917   12.88652702827158    7.69624593015020
H        -1.89770865425748   13.17437411919227    6.95675323106560
C        -1.52320531919048   12.04591954805909    8.73588837625693
H        -2.53498072875358   11.67500108129497    8.80654941307968
C        -0.58868014805362   11.66926618351136    9.68534333975944
H        -0.86938422876978   10.99807420557740   10.48399616896612
C         1.21349670396503   10.82662138061189   12.10278602225489
C         0.21929282379538   11.51318169375806   12.79975434308290
H        -0.04000277140594   12.52290006795349   12.50946635629560
C        -0.42561048494708   10.90498459424525   13.85875148560897
H        -1.19776376930193   11.43729547930457   14.39553509020738
C        -0.07795032265996    9.61661416114586   14.23708429669389
H        -0.58249836248500    9.14586664381795   15.06846733190515
C         0.91928890799987    8.94036989387878   13.55674659000892
H         1.19887448726184    7.94187167721064   13.85957688321044
C         1.56759703555975    9.54156103554927   12.49078964154540
H         2.35468385473870    9.02085635291581   11.96397839956475
C         1.45096815423635    8.96068825587222    9.09232792916139
C         0.41318675517850    8.15041716735464    9.62935138706125
H         0.62541173248005    7.61717250141006   10.54433481296871
C        -0.81465291311755    8.06304997274210    9.03482025792030
H        -1.58582775771203    7.45623854821817    9.48877444874358
C        -1.08586535297525    8.73794497140995    7.83926937049532
H        -2.05577972199327    8.64825716491614    7.37449397495884
C        -0.10300904157277    9.49708901083764    7.26283256347436
H        -0.28883654409810   10.01819386108710    6.33295154094844
C         1.15501876411187    9.65030816043337    7.86725674952452

