70
CSD_code = SESXUL | q = 0 | S = 0 | Stoichiometry = C27H35Cl2N3OPtS | MND = 4
Pt        6.31293664476943    4.77193246893615    7.73279242115648
Cl        7.69318296727148    3.73149947704637    9.23803031242417
Cl        4.89477671915379    5.76091298612080    6.19096288339331
S         8.01093315104203    5.71096888816177    6.61438700053868
N         4.73228395712727    4.04661958214033    8.77119546797494
N         5.15975531409322    1.89692752712984    8.11790508497890
H         5.57045302933030    2.35801991999987    7.30437897727373
N         3.88513742041785    2.32094410392667   10.05772138291239
H         3.72629257723635    3.01381298730338   10.77729923957563
O         9.38519754492761    5.46521667375177    6.99964558055363
C         4.60393379886846    2.76197209584615    8.99739906208282
C         3.99739834011908    5.01663179993825    9.48312074675392
C         2.59967784850959    5.07403093186201    9.42629637807426
C         1.96666914276932    6.09326814213115   10.12634864263450
H         0.88857381721276    6.15726793230275   10.09052200328338
C         2.68012302740053    7.03088447853495   10.84783488325828
H         2.15555409075318    7.81326515359601   11.37650414027788
C         4.07033930216820    6.99236897273890   10.88191812901869
C         4.71429940054698    5.97870982703813   10.19357673341139
H         5.79763344936438    5.90576373902167   10.20220212068291
C         1.80897725601962    4.10688818990208    8.59854679068389
H         1.61382730235115    3.18178812960367    9.14258070864277
H         2.35563560990256    3.86110429032938    7.68982883453720
H         0.85339021049164    4.54596849037820    8.32329171510403
C         4.84755204227130    8.03187466438779   11.62951897049300
H         4.40604429568234    8.21394449813980   12.60752204675891
H         4.83580867748286    8.97227735977379   11.07867824262962
H         5.88147840669009    7.72389434542100   11.75957433686853
C         5.63526880872406    0.60271618750997    8.41423196812308
C         5.55068372321413   -0.38343564318443    7.42877751151834
C         5.97351413940170   -1.66289113302408    7.75399476883659
H         5.91484358998282   -2.44262261086710    7.00774287900184
C         6.45996191113287   -1.96034508936324    9.01439290468834
H         6.76528270069069   -2.97064430980843    9.24394398591309
C         6.57969475137503   -0.96975861232712    9.97897035749346
C         6.17658253028951    0.31735458712341    9.65809068190561
H         6.30585857910147    1.11847424787853   10.36885077089663
C         5.02439578789005   -0.05150204472073    6.06604894527977
H         5.71639023983736    0.60924138547046    5.54273846493804
H         4.06524663911900    0.45933351088044    6.13239512178716
H         4.90062836171471   -0.95312178891832    5.47210545080025
C         7.11094246526362   -1.26752167254427   11.34630299309288
H         6.28365591920629   -1.33778892212583   12.05322157943492
H         7.77224116501251   -0.47126406086443   11.67997957055474
H         7.65437010112587   -2.20864140270132   11.35902784432839
C         3.46119579470361    1.01043084507746   10.32872915941562
C         3.54779034563274    0.52045630743313   11.63481176579502
C         3.14430065927611   -0.78562265033995   11.86522616504130
H         3.20869090036911   -1.18624109749576   12.86675383461291
C         2.67885794878364   -1.58863944147195   10.83985976598062
H         2.39389393273028   -2.60910480021289   11.04777637371692
C         2.56819280334858   -1.09260273466201    9.54837204275973
C         2.94489019517413    0.22004727177599    9.31135444761964
H         2.84407629776786    0.63644160917060    8.32110308825646
C         4.07708459654832    1.38234459426634   12.74110142790153
H         5.05134782352807    1.79402804847384   12.48037620462006
H         4.18036854292006    0.80467427072209   13.65562471002173
H         3.40095263058754    2.21506346371105   12.94255565784876
C         2.08662099620180   -1.95185481171843    8.42150081839171
H         1.48770723895038   -1.37494477520283    7.72114407041841
H         1.49569444771264   -2.78584605715709    8.79000682777462
H         2.94430478112850   -2.35189655515053    7.88102196877150
C         7.76400231679250    7.51238697923430    6.62057981605847
H         7.83434768561594    7.85203923791346    7.64929972653677
H         6.77747191940537    7.71534331910331    6.21931110062698
H         8.54429353068966    7.97066251814599    6.02406364968838
C         7.90937613264467    5.43103351531466    4.81924409233485
H         8.64662950668918    6.05942968438473    4.33381530176405
H         6.90107449726467    5.66921419767939    4.50037993902328
H         8.13390771848413    4.38571677707601    4.63448941045638

