62
CSD_code = SESYIA | q = 0 | S = 0 | Stoichiometry = C24H28ClN3O4PtS | MND = 4
Pt        1.25869606023442   11.22533741044094    9.00086611486797
Cl        0.47498287621578   12.55214966350019   10.83288189850456
S        -0.65489621321878   11.92767619738242    8.05572160363170
O         2.97424244834855   10.78274726639763   12.84234817318175
O         3.53420004362673    6.69568499713589    7.46873669882798
O         4.61579671576565    7.97726608821524   13.45485421799672
O        -1.03329047968083   11.56692811181619    6.69569896883012
N         2.91793404495975   10.69796222879940   10.02818660804035
N         3.00348929301986    8.54042102436286    9.22600237049349
H         3.34922270415306    7.60002013741675    9.36544496743156
N         4.26196763567898    9.11081068947694   11.09652223569593
H         4.10903068194471    9.54689513878340   12.00200493998215
C         3.37507719828652    9.47564288804079   10.12220046986568
C         3.41320178876396   11.79974337113291   10.75537774691720
C         3.40537347440539   11.88947438054932   12.15685547199108
C         3.80883282107367   13.06987812780174   12.76465237376970
H         3.78606120575644   13.16043228517612   13.83917325366079
C         4.21811429743209   14.15118926752865   12.00349945725531
H         4.51642658820234   15.06306973599512   12.49816518482885
C         4.21973904178763   14.07260830460887   10.62317942737843
H         4.51749117710246   14.92178833486791   10.02788625785685
C         3.81119209748986   12.90481037918762   10.00793598913424
H         3.76704113880420   12.82406690364063    8.92668960547103
C         2.56539592509421   10.94068439448690   14.18002883631712
H         3.41693409615807   11.13021890589176   14.84264378376241
H         2.09783433731904    9.99622275025567   14.45453899841671
H         1.83663313874879   11.74951590413569   14.27322933137540
C         2.54470071697328    8.78722777220661    7.91669203566810
C         2.85470343628887    7.79139384245364    6.97361343368925
C         2.48987347634284    7.96880854974094    5.65214799522898
H         2.71234170512932    7.22126348249179    4.90743506343310
C         1.83630414111204    9.13465598584673    5.28197943541154
H         1.56075048112746    9.27714041397404    4.24781666637970
C         1.52379806050379   10.10139947996914    6.21815991349127
H         0.98759628186665   10.98010425005193    5.89649493558263
C         1.85206728880780    9.94407544698438    7.56312544375013
C         3.85976941277126    5.65974919080803    6.57713643091075
H         2.96395753274483    5.21273873150616    6.13502939785349
H         4.37899628467516    4.91135225786831    7.17482147023212
H         4.52248257525136    6.00973026034250    5.77912674521837
C         5.02485704258979    7.94273879361566   11.14478552875722
C         5.23344977861285    7.35014717350376   12.40660944567006
C         6.02007572198735    6.21493773133641   12.50851229303808
H         6.18191277154250    5.74323757270338   13.46459850767310
C         6.60466291017810    5.66603680520341   11.37605445061895
H         7.20828437587373    4.77670300435029   11.47181118422674
C         6.42607267073698    6.26011893505986   10.14275144196518
H         6.89731919030275    5.84659872260100    9.26491673525696
C         5.64743486760387    7.40009586308897   10.02823798800872
H         5.53668920665998    7.88087675318353    9.06910303502145
C         4.82065774086585    7.47390390644310   14.75149336045876
H         4.43422913627057    6.45480880186481   14.85365684035812
H         4.26549309077327    8.13551712139324   15.41475775507062
H         5.88021622850051    7.49094321163954   15.02637950034010
C        -2.06249540677659   11.45149125800479    9.10489399561291
H        -2.96605302355675   11.86242243670788    8.66942936601800
H        -1.88274632830449   11.83321217494363   10.10317922450778
H        -2.10903272273013   10.36693172384529    9.11105303452844
C        -0.84049817922680   13.73785022391658    8.14546878432757
H        -0.05926551451796   14.17753984812400    7.53333709550840
H        -0.72945000636253   14.04207722454784    9.17938823361973
H        -1.81577908214039   13.99222616260914    7.74677824701887

