31
CSD_code = SESZOF | q = 0 | S = 0 | Stoichiometry = C13H10ClN2O2S2Tc | MND = 5
Tc        1.55477111708484    0.42365306683226   -2.12557246636097
Cl        1.08271127490416    1.37907961600192   -0.14484224071568
S        -0.70427236749070    0.10065638065225   -2.61409560909105
S        -1.70959123633954   -1.27062318023374   -5.04671649112391
O         2.04557668971477   -1.08359116924449   -1.73681932735816
O         2.48588641470812    2.10674220104212   -2.42574054349225
N         0.69863527506165   -0.25373217049931   -4.86753245340202
N         1.67583069919030    0.37680782998068   -4.18248613396838
C        -0.91932758172062   -1.68218068552410   -6.63040231846173
C        -0.41068424956819   -0.45978359797487   -4.25484671892031
C         2.65795070412796    0.83353829681623   -4.92142570992095
C         3.64662706689283    1.72474238147823   -4.47119071314390
C         4.76604241795795    2.08161961293868   -5.30285338046147
C         5.11536903720539    1.35934381333703   -6.45538801155599
C         6.19237653686924    1.72910305010940   -7.22325330017112
C         6.97335570512985    2.83171363464609   -6.86982314726631
C         6.67038590801918    3.54297155988365   -5.73805435960245
C         5.57561207565702    3.18331592214599   -4.93344093564423
C         5.27594406224466    3.90338599707497   -3.74673873527438
C         4.25477348876875    3.53592218139030   -2.93320874443274
C         3.43484058814426    2.41437022708585   -3.24555466248390
H        -1.65132629259954   -2.23960181184164   -7.20486200206146
H        -0.64708456396248   -0.76515443991658   -7.14097931699482
H        -0.03983991215713   -2.28653572290480   -6.43751751674821
H         2.61233575489501    0.57477825698174   -5.97520442301750
H         4.54734388847757    0.48653135557412   -6.73703812043390
H         6.44300771063905    1.15917864132652   -8.10529446021817
H         7.81568022934109    3.11195158696795   -7.48357493956088
H         7.27399211953240    4.38849849389413   -5.44249196086097
H         5.89760621580575    4.74916600078298   -3.49053404245562
H         4.03447122346695    4.06203267119659   -2.01711721479732

