103
CSD_code = SETDEB | q = 0 | S = 0 | Stoichiometry = C54H40FeN6O2 | MND = 4
Fe        8.68147460468471    1.73941438391738    2.64093935226948
C         8.89011391263298   -1.05720108492637    2.72954318897703
C        10.03820051828045   -1.59046280077694    3.37586606999831
C        11.34066516771388   -1.14079440775645    3.08437582267966
H        11.45658844038399   -0.36450079957367    2.34300066891859
C        12.42203758791752   -1.65501338680706    3.74253407313160
H        13.42005872002582   -1.31047609578743    3.51224225268840
C        12.24985968869507   -2.63033521619446    4.73524749979124
H        13.11384904000248   -3.01209846291499    5.25847074744543
C        10.99889094906873   -3.08395269710544    5.04162662070824
H        10.85566527441536   -3.82786703037251    5.81173404146099
C         9.86220901353835   -2.58726805786999    4.37004688573284
C         8.56465809229120   -3.04473340618173    4.67457794826893
H         8.44473308905810   -3.80084168220919    5.43608002329507
C         7.47810021808834   -2.52502488263286    4.02869576506027
H         6.48388527403175   -2.87169781699605    4.26786834739868
C         7.63890101800899   -1.52725443863280    3.06296016554999
H         6.77421659303010   -1.09907464269791    2.57422465234189
C         9.50825154876555   -1.65510592733873    0.14008260909538
C        10.81417973882603   -2.10378990050318   -0.00813451796689
H        11.63689107472098   -1.41832168061915    0.12963464209200
C        11.06319021250230   -3.42509336873829   -0.33245120575388
H        12.08166204201763   -3.76695554100354   -0.44296517353112
C        10.01194533756470   -4.30728266529846   -0.51260840129022
H        10.20801536873177   -5.33887817191485   -0.76398688155008
C         8.70836753325721   -3.86332175877042   -0.37087002994688
H         7.88466227681588   -4.54693119127451   -0.51355927421037
C         8.45589458768255   -2.54365801467115   -0.04256817590500
H         7.43948074843223   -2.19554592323927    0.06719625856306
C         9.22538080812070   -0.25133944482447    0.54700514398982
C         9.17282148629701    0.76127057299854   -0.43439392332118
C         9.50474552785724    0.76811670182430   -1.82236166969972
C         8.68264970051001    2.07511842765470   -0.18141291949433
C        10.05005796105413   -0.33081750364355   -2.66198106691361
H        10.11531694485805    0.01575158869199   -3.68955561831679
H         9.40655936651124   -1.20752378348942   -2.61441740754877
H        11.04116594117876   -0.62265674893189   -2.31941995007039
C         8.45318773387024    4.07233422542636   -1.65619463524695
C         8.91887074412612    4.62465435579489   -2.84726025559228
H         9.49163028514684    4.00121514675786   -3.51433222120660
C         8.63985130770413    5.94210379216519   -3.15031952334482
H         9.00462753611913    6.36637313649093   -4.07452095263251
C         7.89749476532363    6.71992306917527   -2.27612192657991
H         7.68198199095759    7.75075615814502   -2.51524045655036
C         7.43119969397616    6.16674039484838   -1.09608501737156
H         6.84766058308646    6.76572567029420   -0.41248154914449
C         7.70056013883125    4.84811871559838   -0.78083178494884
H         7.34171871601262    4.42204913671467    0.14070711484744
C        10.96530733192335    2.99086315143193    1.54000487730036
C        11.69662327247826    2.38106340255639    0.54815193642283
H        11.97915832800491    1.34447998892277    0.65655716287989
C        12.06729573723896    3.08303050561256   -0.60520392709893
H        12.62886483534884    2.57151338138066   -1.37242778814637
C        11.72393723800436    4.39634093447544   -0.75795558913918
H        12.01176571962488    4.94308899305293   -1.64337109579351
C        10.96773663613107    5.05830641086579    0.23155775291413
C        10.58283355435450    6.40831526858936    0.09870336693992
H        10.89403672403617    6.94911412482799   -0.78304359218829
C         9.81842806350022    7.01630159094309    1.05383093635897
H         9.52657051143124    8.04998818828840    0.94113318731665
C         9.38937676489012    6.29881246263307    2.18077742557507
H         8.76596221976026    6.78798636309134    2.91511318760497
C         9.75321325338566    4.99165398490452    2.34423786611127
H         9.40937233875264    4.42036023353968    3.20244927357019
C        10.56218966621235    4.34663611395612    1.38812731175923
C        11.42739122588890    2.12075292981989    3.65603827799357
C        12.77332690518722    2.73979446123565    3.50909930480842
C        12.94925587888257    4.07468747036812    3.85101718962460
H        12.11962483198133    4.63589444233711    4.25558443227005
C        14.17984069297703    4.68114985152250    3.67341906475061
H        14.30866506064994    5.71915357170368    3.94191096626416
C        15.24044007575335    3.96212549146436    3.14984902752832
H        16.19974800160224    4.43737830004831    3.00938751030572
C        15.06768477398862    2.63278327835974    2.80417870100537
H        15.89245514109379    2.06967704566438    2.39262691486083
C        13.83872095056159    2.02327727369393    2.98033125880160
H        13.70100736442936    0.98778390952292    2.70769960928809
C        11.11868955371660    1.40281507232660    4.82711549779611
C         9.81986676109454    0.90146306458683    5.13253258899986
C        11.93999928931501    0.93851533539655    5.89927798728527
C        13.38831078369937    1.17031497642010    6.13919828530812
H        13.65406612836415    0.74324429440395    7.10212422267567
H        13.61460406550642    2.23499281471092    6.13715104121645
H        13.98614229313306    0.69755159522543    5.36245951432592
C         9.01715336532365   -0.60503837526963    6.95112697315565
C         7.65887820408319   -0.51413176179600    6.66481786858428
H         7.31400635955315    0.18622860161999    5.92308573653941
C         6.76487593298888   -1.33541096485732    7.32628129534611
H         5.71107528115243   -1.26260773577671    7.09995713309490
C         7.20695301695252   -2.24209278063660    8.27434828290446
H         6.50187879165775   -2.87981219353443    8.78677390408200
C         8.55973855481927   -2.32413446178745    8.56391013576382
H         8.91182983759297   -3.02786037851110    9.30419960723216
C         9.46428615048417   -1.51310104829774    7.90856844947039
H        10.52058445606293   -1.56187900793282    8.11708906632276
N         8.98551427256505    0.00187606567000    1.80910003019374
N        10.55930371409426    2.28053815161860    2.68542344791129
N        11.24334634111014    0.21854653111278    6.73473934264764
N         9.95666688486961    0.18462861499216    6.28998409603914
N         8.75715888929301    2.74105745646325   -1.37268029822951
N         9.26536269550781    1.93915339240891   -2.34793480523733
O         8.73696340931967    1.08499034519925    4.50429333731920
O         8.25708296687311    2.56259232872933    0.90698735328788

