50
CSD_code = SETJOT | q = 0 | S = 0 | Stoichiometry = C10H22LaN3O14 | MND = 11
La        4.76167109255481    2.27057862927126    2.76641018840519
O         2.96039568248909    0.15168118131282    3.52858566077893
O         2.38104033028515    1.81996460515888    1.39951526707154
O         3.10848862137772    4.49556305706975    1.92052875213041
O         5.11635642866155    4.79770715870212    3.89351299144982
O         7.04939147105042    2.81428446013706    4.09588376806756
O         4.58961456307617    1.96655427354352    5.00838125755651
O         2.93612484902576    2.82417804824665    4.01081525221892
O         2.68341460651166    1.98076527124017    5.93509290051318
O         6.94431255569957    2.06265802170802    1.60171016874706
O         5.60156024480912    3.67475404655625    1.34525170402493
O         7.68323816980638    4.04703720193099    1.41726607362831
O         5.61290600635727    0.23262439181358    3.07721169733215
O         4.66717152208279    0.67312246643810    1.23362102990679
O         4.97399142787529   -1.34036644174239    1.80980881867102
N         3.38594110039501    2.23869306963610    5.00201949940610
N         6.77404973750652    3.26510552091922    1.45962274951152
N         5.08563099957157   -0.16888136747993    2.03483654077269
C         1.91607396330813   -0.16768075157635    2.62170345574852
C         1.33799637505195    1.13540731020649    2.07572874002086
C         1.95685457350683    2.91223266748953    0.61308917236931
C         1.81449994969494    4.18427119383816    1.44786419431539
C         3.11585749242738    5.57867311855653    2.82555184985438
C         4.56300239562343    5.89035933363518    3.17474844272233
C         6.44259526881667    5.09134892866189    4.31431434295576
C         7.00011438288612    3.87250433852925    5.03509136110941
C         7.77930189669080    1.69946270109821    4.59108038459553
C         3.30243345132112   -0.94561886037917    4.36686132662344
H         2.30996266005131   -0.78044894818891    1.79806667173578
H         1.12468335342277   -0.72411616035640    3.14220087603600
H         0.95294657211648    1.73465612651578    2.91091164544692
H         0.52101304212738    0.90591293844290    1.37675706082247
H         2.75702242588164    3.06815215674312   -0.11735756469326
H         1.01476166026464    2.68042168329051    0.09873530429112
H         1.13288689872317    4.01726030734644    2.29336600507050
H         1.42453589052551    5.00718574001157    0.82889561589441
H         2.65632249362524    6.46516492597457    2.36240785747637
H         2.56011787807019    5.31373061250508    3.73608159189244
H         4.60476097987894    6.79856742874608    3.79387931609160
H         5.12964460738629    6.04820136525787    2.24774821555067
H         7.07429709509586    5.31478872808002    3.44204607614293
H         6.43477529048646    5.96004179537569    4.98919237646941
H         6.35509459116347    3.59759490791176    5.88195120205374
H         8.01092024758845    4.10000908216003    5.40329721713268
H         7.82085995259967    0.97521464182114    3.77957824022639
H         7.27041699569310    1.25767785626400    5.45300977078527
H         8.79325038962346    2.00807694224591    4.87091083549759
H         4.11293487407405   -0.60712022008895    5.01040830322661
H         3.64053191898396   -1.80102832474118    3.77361695494594
H         2.44163102415576   -1.23632715984184    4.97888883739315

