38
CSD_code = SETLOV | q = 1 | S = 0 | Stoichiometry = C14H16AuClN5S(1+) | MND = 2
Au        0.46961664399285    5.64486523832294    2.58124590673998
S         1.74567126305975    5.99203817163136    0.63883893738237
Cl       -0.30005428693073    5.37037642244747    4.70211698688579
C         3.32370733790551    7.23319014476948    5.32628154310308
N         2.25555948128766    7.73220970853747    4.68669303350019
C         3.26947825897207    6.35684918918823    1.26860356690415
N         3.38118563466909    6.68436286994811    2.58192938066391
N         4.53278793187131    6.74812584406950    3.23022739033968
C         4.53137695137671    7.03003289096534    4.51159186230272
C         3.25792301346987    6.83975295580871    6.66235823086560
H         4.09870309973180    6.36188220257958    7.14169568301876
C         2.06587273766490    7.01889600070690    7.34931393808709
H         1.98540772738596    6.70930931870993    8.37998658249627
C         0.98581105700989    7.58501504554903    6.69491673605881
H         0.04442459682348    7.74098659096609    7.19363261656789
C         1.12901377826523    7.90655949372671    5.35052318776686
H         0.31178198500040    8.32288302094522    4.78037113752948
C         5.84909700543663    7.10132699479083    5.10133173364176
C         6.16609168923724    7.79115580855937    6.27767897671307
C         7.46968256269774    7.82114538739002    6.72613635724566
C         8.47556751489499    7.16610829432769    6.00318924564266
C         8.13712538434017    6.51938870016166    4.84175279529099
N         6.86244324806216    6.50313135224966    4.42904400036431
N         4.37094697444910    6.31624418898824    0.52710116828107
C         4.39266602095224    6.05182836509912   -0.89672611324377
H         5.34173952916002    5.56452155356753   -1.12905110607714
H         3.57380727847772    5.36667105091510   -1.12158615109054
C         4.23780282029065    7.33198711663809   -1.71001537203724
H         3.28401789813497    7.80391828776550   -1.49042289407829
H         4.26843784917435    7.09410785056487   -2.76848694039785
H         5.03911322748066    8.03324423951838   -1.48955071109271
H         7.71889709975757    8.35683680744752    7.62863391441703
H         8.86366302959709    6.00697726516499    4.22964771760619
H         9.49744097622526    7.17719149131141    6.34328769277827
H         5.21550194507773    6.68167572002547    0.94729312514374
H         5.38873773529655    8.31786672722070    6.80676986181148
H         6.59123543343756    6.04728047422789    3.56010887186055
H         2.52141756617932    6.91945721521764    3.12343710699687

