44
CSD_code = SETNIQ | q = 0 | S = 0 | Stoichiometry = C17H21ClFN2ORh | MND = 8
Rh        4.22047443902017    1.78160641880967    3.15337063145387
Cl        2.14580053626942    0.82867450080641    2.80047231988718
F         1.72440116275905    4.09279652089271    7.38454093422082
O         5.44963645066364   -0.64252450422484    3.32802545033921
N         4.78109606672112    0.18098489190288    3.95562323595227
N         4.38969531787751   -0.12319017278113    5.17684389408804
C         6.00557861496356    2.92072428793258    2.60039806163093
C         5.79476820911177    2.05570121984866    1.45968524753542
C         4.52118027476916    2.33540122622321    0.94571370717857
C         3.95233014784307    3.44228222975135    1.70966334483202
C         4.91375826255729    3.86092099250544    2.65703833129260
C         7.30868803968385    3.06782226651738    3.32467186103371
H         7.97197761381993    3.72104731716764    2.75365478490872
H         7.79891791872619    2.10379895423124    3.44261959532101
H         7.16281211120747    3.50937530442013    4.30808224134720
C         6.80297472787491    1.08358286924022    0.93260408347452
H         6.82070930170102    0.17389037462557    1.53390723504007
H         7.79596984768747    1.53023708908868    0.95404502392802
H         6.56657101674604    0.80728872266094   -0.09176046970313
C         3.87118559643137    1.75333817555547   -0.26798131446214
H         4.41032541578396    0.87808098844977   -0.62031273110910
H         3.84393587007031    2.49973962250474   -1.06402794105812
H         2.84690030719974    1.45680223380360   -0.04710338166838
C         2.69902687385448    4.15779016354529    1.30817157636015
H         2.38086446776686    4.86004563735936    2.07461728493263
H         1.89120976434157    3.44865725694092    1.13768683876887
H         2.87107909343197    4.70890013544626    0.38178200578872
C         4.90607085280846    5.11145809167847    3.48026107819053
H         5.60393184199408    5.82742595045049    3.04241950763261
H         5.21755989748135    4.92059075490138    4.50548007119010
H         3.92000586305838    5.56767818412171    3.49592175781878
C         4.66578119524433   -1.40957175230751    5.76437841645476
H         5.19046865494343   -2.00516494965965    5.01621852622079
H         3.73240433077160   -1.90397971415605    6.03363653997733
H         5.29377950942475   -1.29739019337902    6.64903996650474
C         3.70003043989453    0.89816522673656    5.81953668487563
C         3.54415471294964    2.04668892982121    5.02460214045815
C         3.21138596167110    0.81585655397731    7.11643196466838
H         3.33147641430007   -0.08131602394683    7.70230649767118
C         2.54566883108979    1.90468527748067    7.64770880868940
H         2.14848245588496    1.88448109954905    8.64941897435773
C         2.84450179351661    3.11646694367862    5.56103926754633
H         2.64780834742045    4.01231401866759    4.99194112320145
C         2.37522144866159    3.03123687917374    6.86142682323327

