70
CSD_code = SETPOX | q = 0 | S = 0 | Stoichiometry = C29H34Cl2N4Ru | MND = 6
Ru        3.66997916600340   11.42408441666197    2.08694027655532
Cl        1.42938109872588   11.10775697168856    2.90601805151037
Cl        5.91139043133554   11.70631617131706    1.34294523973796
N         4.06883196584260   10.97768159000585    3.84722684868932
N         3.89076677923118    9.42253013930108    1.87548127863635
N         3.73180165921267   13.28097732672939    2.88971907575527
N         3.19000567754594   11.91313101092806    0.28038670907516
C         4.05177326006951   11.95072472249517    4.77652363189390
C         4.17095224789312   11.62853669741069    6.12941390203388
H         4.16130952505507   12.40254156922004    6.87911130170888
C         4.28552852703061   10.29354536299235    6.48894836405165
H         4.37942423819976   10.02422644964385    7.52975377742408
C         4.25611683572724    9.30128536570341    5.51952565039989
H         4.31232768615659    8.26073527475877    5.79393566632666
C         4.13638207312728    9.67588210060687    4.18045914732617
C         4.07925079229012    8.81877601044191    3.01176511837748
C         4.21198569010815    7.33518888070448    3.16672569105319
H         4.10744067106954    6.83604285597992    2.20668752661233
H         3.43529558055613    6.97288652513832    3.84039287062488
H         5.17788401750776    7.08110645812874    3.60130133895266
C         3.90701648162271   13.26362798071245    4.17803947168609
C         3.94005044118070   14.48725578018345    5.04078527092097
H         3.77886553823090   15.38279829516756    4.44584689290925
H         4.89618445836016   14.56501089932213    5.55675125792924
H         3.15645250683369   14.41783717114052    5.79544794567418
C         4.05228611917785    8.76365004259517    0.64468177537907
C         2.96349918129869    8.62333811437730   -0.23009095044468
C         3.17143737799059    8.05933297718957   -1.47974674000475
H         2.33007491037226    7.94825992023650   -2.14880537663031
C         4.42714743119249    7.63788291582964   -1.87440121666059
H         4.57473655214769    7.20653729133509   -2.85343792267070
C         5.49057287223535    7.76574421140360   -1.00286965130742
H         6.47406270844042    7.43260669995525   -1.30102419012093
C         5.32886262912033    8.31503812605978    0.26183239542875
C         6.52749603069319    8.41328647614347    1.15695836609999
H         6.43086494755858    9.22425791045987    1.87369401778650
H         7.41572231117433    8.60114628364775    0.55838846166411
H         6.67835984725155    7.47797519028332    1.69810918522977
C         1.57013344882920    8.99221830478281    0.18596836064485
H         1.57186735761624    9.93416866895483    0.73905261246884
H         0.95147540604560    9.11856239556521   -0.70504310549636
C         0.95311515466506    7.91077469147323    1.07534848488483
H        -0.07810069530289    8.16622495910340    1.30424481614299
H         1.49575809632637    7.83637233925595    2.01392388925330
H         0.97559423893662    6.94230006026604    0.57765875731780
C         3.80696594562494   14.46431056885909    2.13537046629600
C         2.68210857396319   14.92624174362525    1.43387237626852
C         2.81258879851094   16.02680103943148    0.60013847286247
H         1.94346818901923   16.38135541978216    0.06422299950861
C         4.02588380151125   16.67198397722780    0.45209412470342
H         4.11435868092174   17.52285980442854   -0.20723952367449
C         5.12218954420343   16.22641555560656    1.16393936469900
H         6.07122338796589   16.73250376912077    1.06266053612365
C         5.03752886003490   15.13453106060673    2.01715290318757
C         6.26505173535665   14.71598761145005    2.76871055810910
H         7.14906884441842   14.92316148099949    2.17054976000123
H         6.25618116983074   13.65318965042973    2.99455677708803
H         6.35100576271197   15.27561080825670    3.70129193695733
C         1.32757594494707   14.31199170770808    1.63078718366470
H         1.40285895115426   13.22426399431456    1.68976591746994
H         0.69025526786169   14.56640575321354    0.78122892341761
C         0.67378977002499   14.82128057161891    2.91712140667174
H        -0.33012642916252   14.41471123822013    3.00591121950832
H         0.61606572723526   15.90887407691610    2.91670964773232
H         1.24374606705676   14.50069327421315    3.78507216073549
C         3.09815053986875   12.29974650625914   -0.79995466182438
C         2.97515465527378   12.78396254959180   -2.14232096103547
H         3.25957599549342   13.83585189112432   -2.17601282899466
H         1.94406353418235   12.67537122703031   -2.47770050748370
H         3.63070340730181   12.21033111451064   -2.79720252685631

