59
CSD_code = SETVOE | q = 0 | S = 0 | Stoichiometry = C26H21N3O7SZn | MND = 5
Zn        1.75417330506465    1.53307086475563    4.84687323576582
S         2.91646649733175    2.44215470945499    2.45137083185169
N         1.99946756034869    2.18915219906077    6.81801997648880
N         3.30334876054009    0.30867262750346    5.52701840942363
N         2.88200933451118    2.84206746974874    4.03721808126952
O         1.09607190692066    0.15617748769231    3.66769720509339
O        -0.03434542697697    2.27866333450430    4.57071231440923
O         4.90528481982469    4.09988781903998   10.34090123404609
H         5.38601524346846    4.73090920510761   10.88548541240970
O         7.07140772235215   -1.38137423195398    8.35874478091926
H         6.34061308256191   -1.75372953627694    8.86525480016365
O         3.81133741062161    4.34268823763005    5.47162607892399
O         1.61231917850626    2.54692880848183    1.85871058141617
O         3.60067310542209    1.18881257806785    2.28359947632607
C         1.36699235157732    3.25426110629420    7.27892854536840
H         0.38323617650756    3.42378875344903    6.86719052279702
C         1.92287053829044    4.10920037622704    8.21377129705169
H         1.37810124161118    4.97753432634998    8.55008127149383
C         3.20426881181843    3.84642981596238    8.68124392218941
C         3.85794637133372    2.71867942181570    8.20645972715467
H         4.85793117331035    2.51475960574736    8.54998589117449
C         3.22698416153428    1.91444985701400    7.26635664103801
C         3.87941763775275    0.75251651503626    6.64458219689546
C         5.02611734620025    0.15000293100377    7.15336935239117
H         5.48023177196223    0.49335803701304    8.06964372986027
C         5.59579314202494   -0.91454227453561    6.46681200343892
C         4.99596095673900   -1.33191580924998    5.28286787109625
H         5.41519519190306   -2.14375570286663    4.70962495733621
C         3.84665975765639   -0.68989199871896    4.85363192218157
H         3.33769332752947   -0.96576153160614    3.94316685115209
C         3.88925100121854    4.77937359623875    9.63894865538975
H         4.31010490761201    5.60712596563515    9.04696249633063
H         3.14913256399263    5.20051526471675   10.33574476139277
C         6.83816903318011   -1.59120585856990    6.99107741975243
H         6.79513242551682   -2.66534964228763    6.75769041602200
H         7.71136871150396   -1.17272094976592    6.47858158793532
C         0.09226171630731    0.56743921717358    2.99913085319607
C        -0.55782116150319    1.78205410796548    3.51882425717869
C        -1.69165008072272    2.40465461627209    2.97286425923357
H        -1.99119992652037    3.28795385735201    3.52527607336915
C        -2.44727649807397    2.08835631198339    1.86429000167232
H        -3.27334876104952    2.76145817017914    1.66272405334032
C        -2.30269563694742    1.04151198849703    0.96773789573151
H        -3.02097859849041    1.00208985800117    0.15840650931433
C        -1.34010700017206    0.04345898917646    0.98177012479395
H        -1.40798952352094   -0.67846573268306    0.17548766079487
C        -0.30783236987404   -0.16481394075073    1.86965811776036
H         0.33451963868012   -1.01583209605165    1.67625661627362
C         3.63422969411226    3.90421099505092    4.34468839622899
C         4.26112768633354    4.50267298126268    3.12075117841669
C         5.06169860016320    5.63280741340023    3.07550439276802
H         5.28650554223531    6.16583989561835    3.98651675471604
C         5.54935623237521    6.04774834466992    1.84528140512420
H         6.17261913391917    6.92798823629795    1.78552432738950
C         5.24498315163922    5.34654272383920    0.68726939460091
H         5.63309439080818    5.68609358289917   -0.26152930949848
C         4.44375654731832    4.21119278580175    0.73413693630325
H         4.19837884311187    3.65700374822358   -0.15805102658540
C         3.96436727860293    3.81040056809429    1.95992666991804

