20
CSD_code = SETXOF | q = -1 | S = 0 | Stoichiometry = C9H4NO4SW(1-) | MND = 6
W         5.35904048600621    5.36030578127721    3.07922012079804
S         5.35930538420983    2.69200691652941    3.05523376217466
O         2.90547675888863    5.31705351498810    5.02721853942457
C         6.93451680478068    5.33122861700050    1.87380268887535
N         4.16726200979847    4.39657652125363    1.51684047822817
O         7.86445148578732    5.33898721216687    1.19754874673982
C         2.76388344410111    3.89754333712495   -0.33887998335536
H         2.14578211637369    4.25959307748949   -1.14659058880760
C         3.79304180372206    5.31524891132606    4.29625255136538
C         4.35048106254912    3.07315804583781    1.73561589315753
C         2.94388303087164    2.52915650979894   -0.12639036890950
H         2.46193908226578    1.80871905932549   -0.77484359358953
C         3.73829533219596    2.11134393865090    0.91294771962553
H         3.91044881022680    1.06614710897846    1.12062674501877
O         4.84998190530836    8.36682978488878    2.44306588806623
O         7.17440129419416    6.28149182848266    5.44378137959557
C         3.39796724633142    4.78429070816448    0.51130869082856
H         3.28736448297452    5.85616527177288    0.38439593789803
C         6.50197162969136    5.93724702591278    4.56823124905723
C         5.04040582972187    7.24790682903037    2.68061414380807

