37
CSD_code = SETXAR | q = 0 | S = 0 | Stoichiometry = C17H12N3O4V | MND = 5
V         3.12376616405153    5.92824049234132    1.17351413626373
O         1.96251595503805    5.50506918555674   -0.16496855961617
O         4.74178129731126    6.68417080552860    1.76716157034187
O         3.16172571674863    4.62636236457441    1.99396228430841
O         2.29046129083892    7.04258781916951    1.81837654454509
N         4.49869323228887    5.56011358986880   -0.42291490187650
N         5.76001685642028    5.77650063028152   -0.05930531639063
N         9.51418015162493    6.93733926923155    2.99572043384866
H        10.40443270064254    7.07776537743671    3.45348073626768
C         1.91198277072050    4.82893887030283   -1.22902419329639
C         0.63762098411243    4.32045320302776   -1.65885524231838
H        -0.20011942565898    4.51709672371743   -1.00553837715975
C         0.50628364280493    3.63378367767599   -2.81460248578688
H        -0.45886303977061    3.25431224872495   -3.12009694327179
C         1.61872967483135    3.39761002735175   -3.67449762484303
C         1.44541975841369    2.71523901124223   -4.88657297207549
H         0.45662688019989    2.36561677538221   -5.14665720118673
C         2.50438508957413    2.49638953936787   -5.73285696554084
H         2.36269162403313    1.97149847035871   -6.66551111031165
C         3.76884924403087    2.96447810496100   -5.38047771124212
H         4.60340877563642    2.80336647501688   -6.04709715136118
C         3.96335749032594    3.63130031674881   -4.19391493897595
H         4.95506960341265    3.98627545750119   -3.96280232661837
C         2.90360130258231    3.86358146307785   -3.30140340374352
C         3.06511321878849    4.55514591490906   -2.04655675097413
C         4.32320485004604    4.94287026656726   -1.56557278878659
H         5.22825681934801    4.69605273094191   -2.12276445755158
C         5.79267168015373    6.33990397910360    1.14515044167530
C         7.08984385363091    6.54589320249331    1.74608017653681
C         8.30321182178730    6.24258228870529    1.08871272619684
H         8.26783559055974    5.84875558782047    0.08709110379724
C         9.48659572588825    6.44524094190706    1.72960214671945
H        10.44070955075401    6.22866840562288    1.27548884787131
C         8.36770580195926    7.23564081439684    3.66114672406903
H         8.47457118491013    7.61598082393871    4.66468671300678
C         7.15875162044884    7.05288877028673    3.06672714056655
H         6.23131054151164    7.27558637486095    3.57288969691304

