37
CSD_code = SEVBOM | q = 1 | S = 0 | Stoichiometry = C15H15NO5Re(1+) | MND = 6
Re        4.35919956037059    1.54619011040307    3.60578747269985
N         6.10585210632224    1.14527570356646    2.41225230917996
C         2.90894415575461    2.29332590097296    4.69451676026862
O         2.12332498659668    2.81967430054121    5.32057899815068
C         4.39185662491461   -0.05631117488927    4.71836006558252
O         4.48981543660242   -0.97812160230431    5.37891718540888
C         3.10783303768919    0.70959391091548    2.36770079878843
O         2.41210262643076    0.25144697411855    1.58982404828951
O         4.70364552277665    3.47116551371722    2.36401376191926
H         4.20287576425991    3.53220479522837    1.53999436041987
O         5.82849093399306    2.62572726703163    4.79206875444765
C         6.64541742264836   -0.06164180806063    2.23073744273044
H         6.10154698818152   -0.89523327718517    2.65326623985289
C         7.82762561184302   -0.25816796013434    1.54164130665907
H         8.22113256163747   -1.25403431899597    1.42441403301257
C         8.48425285105534    0.84189851448835    1.00991672693345
H         9.40769620290297    0.72897403775202    0.46475926392594
C         7.92086953345427    2.09439212578207    1.18567338878757
H         8.38840660302254    2.97640529504596    0.77627565720507
C         6.73125789161382    2.20720421327378    1.89149301624380
C         6.10196436348379    3.57324839755218    2.11153542998976
H         6.27036029285630    4.19033257372505    1.21910554691578
C         6.77663031624341    4.28758926379968    3.30804351479603
H         7.85184556345943    4.34324018051260    3.10605685204012
C         6.23552603918331    5.72193483184855    3.48187115057851
H         5.16156626767251    5.67932857540612    3.68022349753736
H         6.38629606083608    6.27625763837170    2.55353781023689
C         6.94627893762992    6.42159000052303    4.63464695828768
H         8.00951151111911    6.52134226976896    4.40584885206540
H         6.53610473089549    7.42513288193338    4.75063639988445
C         6.76668957256445    5.64363314455950    5.93198857375596
H         7.30696115839415    6.12906997319306    6.74403207268461
H         5.71000074044568    5.61279859379569    6.20523386316440
C         7.29268222793823    4.20555767115472    5.77477255676303
H         7.11683027910713    3.62987206333936    6.68410936038147
H         8.36464156680334    4.23716575126022    5.57102723308913
C         6.57166394929770    3.57383766798861    4.62823873732319

