37
CSD_code = SEVBIG | q = 1 | S = 0 | Stoichiometry = C15H15MnNO5(1+) | MND = 6
Mn       10.14167471635530    8.44383731713849   10.89436846611417
N        11.77947897214658    8.93109838767795    9.77820758059774
C         8.77018427975771    7.76461733903056   11.85162291382925
O         7.92029952369445    7.32744487836522   12.46713889598786
C        10.13914915734035    9.90884499740506   11.94111647763027
O        10.12675269677992   10.82746563930279   12.61743925830101
C         9.01481641637027    9.24659646985348    9.74764842566985
O         8.30434718601552    9.76848564421670    9.02130274186087
O        10.38885488550171    6.65275967659019    9.70415390602532
H         9.87103674704783    6.49076291114423    8.90512238163840
O        11.45987005719076    7.47140476326218   12.05373109786348
C        12.30821000430513   10.14640083296648    9.61328444711390
H        11.77053817768492   10.97115745201397   10.06150791094603
C        13.47700333038789   10.36741634916363    8.90677285448624
H        13.85955486841924   11.36945015772732    8.80480201179122
C        14.13405622931584    9.28677479331333    8.33782957659661
H        15.04611689106933    9.42096042865333    7.77837554039965
C        13.58411805897107    8.02589349379265    8.49609292806334
H        14.05124486815759    7.15688238233983    8.05933125694407
C        12.40777368097839    7.88859140535772    9.22012292450889
C        11.78153824797885    6.52171257837310    9.42899047013353
H        11.93109454274142    5.90878216130094    8.53075936582607
C        12.21764700296636    6.52674289059247   11.93072274159553
C        12.90744562396548    5.91243647149108   13.10634951204220
H        12.69277619002441    6.49054402821514   14.00572410083305
H        13.98608276346305    5.89641810639419   12.93899164963916
C        12.39971387152481    4.46662627320038   13.25477772919539
H        11.33567913803058    4.48224679434648   13.49850866273070
H        12.92484747189730    3.99299784814314   14.08360479002803
C        12.62658927962609    3.68422166008464   11.96738334025769
H        13.69684255150635    3.60202618098459   11.76672492418605
H        12.23157208572326    2.67428464217565   12.08016403744756
C        11.93366859554653    4.36352580829868   10.79124591464134
H        10.85496460647460    4.39339771225634   10.96495412231341
H        12.11475711450063    3.80305489749518    9.87215413934202
C        12.45916509329000    5.80337216547087   10.62105486343544
H        13.53723507325071    5.76146446186221   10.43261803998464

