40
CSD_code = SEVCUS | q = 0 | S = 0 | Stoichiometry = C14H15BrMoN4O5 | MND = 6
Mo        1.99556407549343   16.04401526826116    9.64743001641787
Br        5.24688742393258   16.73393898537342   16.33205446186291
O         2.44122075818946   15.20171562086785   11.25733782972685
O         0.86483627067315   17.28598001121508    8.74150349050564
O         3.45098235072017   16.65985047145223    9.18547114594964
O         1.48101364926377   14.71275640308260    8.83561686894261
O        -0.28730648968846   15.48286262959343   10.91023531282450
H         0.09824638360056   14.78816077425811   11.46090107197718
N         1.58951146371346   17.65505103913414   11.05657535764813
N         0.91243154934787   18.69252343847733   10.51319847163394
N        -0.54245088079808   20.59066561787144    8.91241672615237
N        -1.10306655208475   21.17654160591458    7.86850745787227
H        -1.50612067374699   22.09566348728734    7.97184332126765
C         2.92690677614723   16.87432083785659   12.88353987611555
C         3.07582024904884   15.56639539943170   12.34950040230112
C         3.88780649741453   14.64360479200620   13.02776105679835
H         3.99902371712481   13.65745641473652   12.60004051901319
C         4.53263617406073   14.98850236754790   14.19428521173025
H         5.16005560413212   14.27494395560056   14.70610002606137
C         4.36782835399337   16.26946600000831   14.71405116793482
C         3.58124281970934   17.20250972067626   14.07872509853551
H         3.46940649952498   18.19483287876301   14.48965147707783
C         2.13718494547897   17.85869710705905   12.20910068245825
H         2.02065643658430   18.84145030602480   12.66586173179747
C         0.58292870624946   18.43092245930886    9.28128042955140
C        -0.10926068914052   19.41541742257864    8.46734160473899
C        -0.41158667441567   19.26349486610210    7.09293524672831
H        -0.16858429401565   18.41796199644568    6.48299067183724
C        -1.05319887204172   20.42587664616914    6.73827456219342
C        -1.61969414502512   20.89289196361932    5.44905249414616
H        -2.68373562567043   21.10474539331271    5.55076726562747
H        -1.48612431629723   20.12824453469612    4.68982665499245
H        -1.12142321349924   21.80416093095900    5.11872138012289
C        -1.32308796231028   14.87151279265905   10.13309126618466
H        -2.12068404626074   14.55143788978884   10.81913292062648
H        -0.91811999377907   14.00216706970560    9.60469784898356
C        -1.86130181926236   15.87334277548233    9.12775905781580
H        -2.72589683381906   15.45454539409358    8.61998000734807
H        -1.08827329135414   16.09481998977112    8.39255353193756
H        -2.15247433119735   16.79275274281084    9.63298627456119

