36
CSD_code = SEVDAY | q = -1 | S = 0 | Stoichiometry = C13H21MnN(1-) | MND = 5
Mn       10.32904132399939    9.51698517078228    9.35596003370934
N         9.76908709737991    9.76978399765662   11.04597676682224
C        11.75325485589576    9.12551482508773    7.94544036272795
C        12.69145627845991   10.33939843793611    7.88976778327131
C        12.44202673703635   11.19190298976618    9.13481733479398
C        10.94213162883420   11.50197658326442    9.20708179950761
C         9.11301017657977    7.80908962673382    9.07386870008399
C         7.66782837956119    8.03938018100038    8.63683665786180
C         7.75501203850293    9.09298796895739    7.54314609087974
C         8.63747277010610   10.22738194823454    8.08956138412623
C         8.89769895969333   10.47580456027933   11.81143334045843
C         9.01711024261599   10.61025113143246   13.17355427684311
C        10.07308514421308   10.00139315324495   13.85113228074021
C        10.97042644530417    9.25354697190772   13.07701109454446
C        10.77311147208954    9.15909344073316   11.72677461031971
H        11.68323563958841    8.70095455810533    6.93218132320570
H        12.28614372986380    8.33439981664999    8.54564395778026
H        12.45257248516548   10.94212484658736    7.00757948465160
H        13.75832306997050   10.05642141813202    7.81833763866127
H        13.04310130742297   12.12035646835731    9.10198182431677
H        12.78183047662648   10.64684640138589   10.03363290910137
H        10.74690554389819   12.10549811459085   10.11562263704400
H        10.70212191001906   12.15672540698432    8.35629219420803
H         9.11165684462410    7.22001511305492   10.01576021750826
H         9.58504098727716    7.16998829502681    8.30466662233738
H         7.08450715011085    8.43359833133813    9.47395760852960
H         7.17874643741845    7.11694117994565    8.28494540964898
H         6.76163945917558    9.45876684198975    7.24557517501540
H         8.23612203502744    8.65315037275328    6.66798612870268
H         8.95251788113479   10.84428574789129    7.23888318480846
H         7.99550739581277   10.86464140571290    8.71968273772894
H         8.08386000448996   10.93976877645477   11.27097605948192
H         8.28425859582441   11.19201098695308   13.71882951499719
H        10.19196676653913   10.08774361557306   14.92151182916517
H        11.80641263864058    8.74263512815303   13.54212052448221
H        11.45937609109660    8.54163618733653   11.13087050192860

