30
CSD_code = SEVDIG | q = 0 | S = 0 | Stoichiometry = C13H12CrO4 | MND = 9
Cr        7.44068077207004    1.61988202654787    9.37029852750563
O         5.16744409401414    0.39923506144259    7.89135836184735
O         8.75820643711869    0.11296979601692    7.17182311468602
O         7.18060459780258    3.54491644747024    7.11483330733621
O         8.42386418327664   -1.59242564735836    9.98929286416768
C         8.69179120966417   -0.83709179464732   11.13562057010193
C         9.95181709753373    0.04708371375216   10.90255022937609
C         8.97533699086181    2.61768786265425   10.80321255545801
C         7.69018119080507    3.18540376189496   10.98290783055380
C         6.56696284678630    2.41793135815052   11.32055224411853
C         6.63921744342098    1.00661736804688   11.41913162032428
C         7.89589444875707    0.45370981126080   11.22615949811901
C         9.02589192474915    1.23622850660268   10.90998874275120
C         7.20306300197182   -2.30907757163544   10.01700802347205
C         7.01089501034533   -2.95833055459399    8.65785600599830
C         6.02101287559470    0.88280071756911    8.50486923665242
C         8.28848804729308    0.68015113576545    8.05973216923730
C         7.29155805173952    2.83413903632906    8.01962554642148
H         8.70199437460757   -1.46585564387166   12.04038164571771
H        10.67709864868724    0.02275183086363   11.71516489158206
H        10.44299315459142   -0.16309014497274    9.95448791337441
H         9.84454032760569    3.24054983048518   10.63553629302272
H         7.59145802500116    4.26494443025938   10.95801542250904
H         5.63136868181037    2.91740560389819   11.54112743208855
H         5.77333024967696    0.43356527427614   11.73138050345021
H         7.23871503939592   -3.06812531107332   10.81508862394968
H         6.36819207793002   -1.62443377368705   10.22216515725056
H         6.97154723697487   -2.18765662274239    7.89338741815531
H         7.84378105422620   -3.62103180839432    8.44185906580413
H         6.08497090568695   -3.52565470030916    8.64488518496848

