70
CSD_code = SEVHOS | q = 0 | S = 0 | Stoichiometry = C31H36NPPt | MND = 4
Pt        9.32361905093352   11.53656942076356   18.26814209136778
P         8.21028627166408   10.36537735369178   16.56406056913692
C        10.76449382672298   12.46468839616752   19.38795874997196
C        10.58053106265946   13.20687044765530   20.54656660800297
H         9.61873957630585   13.25298721563664   21.04455836106787
C        11.62336129184244   13.92009852469316   21.12101294213660
H        11.45969702471728   14.47661261353837   22.03465280661984
C        12.85159408435341   13.95177312700521   20.49944998090386
H        13.64587404746741   14.55792340510936   20.91491534429912
C        13.09245169859542   13.22187458579534   19.33905208761302
C        12.06613144289131   12.42456583403191   18.82104868636974
C        14.43865569570455   13.39588224460478   18.69294884405088
H        14.35379615718054   13.42045060022286   17.60891948660959
H        15.12066222332240   12.59335754073169   18.97726283558206
H        14.88312844732996   14.33375333508051   19.02388530726379
C        12.16163485911675   11.50793693222913   17.67421359413674
C        10.93020617723508   11.06454528327302   17.19176345948114
C        10.86675957477087   10.20088780328353   16.07463792981120
C        12.07649877683768    9.77487014024871   15.46035856851347
C        13.30188047388791   10.15991095516853   16.03062509393668
H        14.21616135554224    9.77738563759436   15.59763330021051
C        13.34608532313048   10.99792194989455   17.10991591461796
H        14.30355997747134   11.22836360823065   17.54284491446343
C         9.61107982728073    9.77606892697415   15.52719349905741
C         9.59037384916727    9.02327666336225   14.37110628243994
C        10.80640596731343    8.62296469162396   13.77858353323355
H        10.75854323161050    8.02498559778249   12.87862852614560
C        12.01209821894978    8.96750583236023   14.30983669336151
H        12.93286044578615    8.64183185889412   13.84611480243632
C         8.34868057892565    8.61013137794852   13.64123839909306
H         8.33265983665721    9.06914132389048   12.65101326370358
H         7.46346537426853    8.90763122677297   14.18574107781994
H         8.33105033929542    7.53004517401702   13.49342855624996
C         7.47432899668553    8.78723947371768   17.32120810386943
C         7.04957128199849    7.63998054888730   16.41260921833084
H         6.23551818089145    7.92263725424725   15.74976893770014
H         6.69744149578784    6.81571780419919   17.03434490185441
H         7.88767625395935    7.27764718707175   15.82584728687478
C         8.63785702564972    8.30827615932246   18.20097926921011
H         9.43433715073365    7.89499488330509   17.58356170812497
H         8.30606046975420    7.53761641300454   18.89588832638640
H         9.06657558558849    9.14476041343082   18.77529776188022
C         6.29241216826140    9.19422713756878   18.20244427363721
H         5.40590539727849    9.39941130790451   17.60595328390433
H         6.52721084358005   10.08356435256498   18.78268351039391
H         6.04608555233539    8.39013399373874   18.89586478663004
C         7.02707546294750   11.40540768176378   15.48141158337377
C         7.88352337379100   12.00295345224699   14.36516169844325
H         8.14943526506845   11.26186330901242   13.61795126659013
H         8.80444016354357   12.41145175013191   14.78498369427477
H         7.34426510022672   12.81032824441405   13.87039528649779
C         6.63020990236620   12.54533212346489   16.42601681458050
H         7.53717122715534   13.00850041489529   16.82647583569659
H         6.02147960346562   12.17738158375636   17.25091334569150
H         6.06114012120094   13.30727073355229   15.89379053607673
C         5.75219328446684   10.77757230828422   14.92446110929942
H         5.12547140393195   11.56811503876195   14.51004881135766
H         5.18055481727067   10.27805260286792   15.70279562746518
H         5.94488234246693   10.07050282887389   14.12328858247039
N         7.85424890473333   12.04221535857261   19.68555755624573
C         7.70059024075419   11.24833697480214   20.75062352696321
H         8.15488737963472   10.26620788595426   20.69345524853855
C         7.01507826885474   11.63164256273626   21.88700161672113
H         6.92694182036698   10.94931189131077   22.71790832915302
C         6.45388146824205   12.89959510727652   21.94108134684856
H         5.91117172579625   13.23093234551115   22.81302056183717
C         6.62444209356749   13.73252607582553   20.84577485310066
H         6.22220206328216   14.73348745697325   20.84040978110031
C         7.33054625731189   13.26892083739083   19.75144862754663
H         7.49246121810868   13.91189487437114   18.89616088162339

