62
CSD_code = SEVJAG | q = 0 | S = 0 | Stoichiometry = C27H30F2NPPt | MND = 4
Pt        0.22859315517599    1.73456306332934    2.64427643380535
P        -0.94539302685419    2.36173431032954    4.54819196993806
C        -0.94514882746420    4.23723883039543    4.89644166937549
C        -2.12070665795426    4.87604777734515    5.63408264818294
H        -2.08576735332868    4.69855629853857    6.70437501653419
H        -3.07621260280403    4.52691356486307    5.24988180422645
H        -2.08143857003622    5.95585956847723    5.48817770607242
C         0.37374518794601    4.50502667271012    5.62174759206234
H         0.57756765077142    5.57467705339018    5.65083952657661
H         1.19228553633666    4.01315880635018    5.09175777369666
H         0.35478709711678    4.13095695824830    6.64172423743245
C        -0.85366526345410    4.86533765817920    3.50065184915792
H        -0.69130995546371    5.93992942474643    3.57983038399768
H        -1.76817432341537    4.69877898282417    2.93401889932370
H        -0.01198860464522    4.43492069270804    2.94889494982020
C        -2.64261319955260    1.52256950538008    4.44991498268277
C        -3.46325934573039    1.38531630743340    5.72676060137292
H        -3.76722372355683    2.35069256999590    6.12408112573875
H        -2.91148147976068    0.83783581621486    6.48501274948988
H        -4.36962008066710    0.82190741902797    5.50245100029066
C        -2.26657765031980    0.12043167432549    3.95176763385229
H        -3.16096300031077   -0.45174763445990    3.70891936316020
H        -1.70850741336518   -0.42060825874351    4.71528890218698
H        -1.63827689003021    0.18155756681026    3.04789633324903
C        -3.46975930042454    2.22887708211438    3.37616865944796
H        -2.89768657270208    2.32280257817374    2.45494761012632
H        -3.78162141632760    3.22104256633633    3.69594598142985
H        -4.36724090354378    1.64978984574772    3.15980023897523
C         1.32772882492910    0.74540475903771    3.96504489655414
C         2.38169757858394   -0.01135347974513    3.46627974158397
C         3.17337061483344   -0.79073406404221    4.32907402609101
H         3.98801629964382   -1.37968692599162    3.93510953869127
C         2.91604211654063   -0.81072709793331    5.67047790830650
H         3.52346059355648   -1.40467284861122    6.33911165848973
C         1.85690949275015   -0.05845601948913    6.21420773569702
C         1.58131302285092   -0.04924470367654    7.59430173221646
H         2.19375309299637   -0.64621810960884    8.25529999519884
C         0.56650144852434    0.71375257079166    8.08939794632101
H         0.36947924127303    0.73134492398417    9.15249665182340
C        -0.25303117768698    1.50036160529561    7.25328063599475
C        -0.03609959119225    1.49249828239148    5.89099288438625
C         1.04396380947031    0.72424996330008    5.35033008977313
C        -1.29562389694399    2.32512754333758    7.94227469996854
H        -0.81660074021294    3.06528036074236    8.58564054426533
H        -1.91890462748506    1.69894424005882    8.58073410583373
H        -1.92313839455366    2.83135728364595    7.22197340268252
C         2.56180101373422    0.07900467173385    2.01518178909134
C         3.58536083261496   -0.56980385780956    1.33572758581901
H         4.31244418998125   -1.17900355287132    1.84819137358576
C         3.67867334922779   -0.42904463450425   -0.03403713281081
C         2.78168457106278    0.33832759183927   -0.74197930394198
H         2.85308511500781    0.45014535748024   -1.81180890584752
C         1.77457778695059    0.96993930292744   -0.02432482249355
C         1.60332594362351    0.88627794277608    1.34796317025090
F         4.67680980676710   -1.06024224881110   -0.70096719481893
F         0.91673556846126    1.71711028375966   -0.79068487988830
N        -0.82732997203921    2.61167387060669    1.20098458028852
C        -1.20514103285206    3.01620993189556    0.19253503557431
C        -1.68195631656799    3.51889158509425   -1.05777982153475
H        -1.64371794796826    4.60780707823784   -1.05760776629455
H        -2.70729026776762    3.19010445627983   -1.22538804567386
H        -1.04214281368451    3.13410723713700   -1.85158149738748

