56
CSD_code = SEVJEL | q = 0 | S = 0 | Stoichiometry = C30H21ClN2ORu | MND = 9
Ru        4.07672737144889   -0.02424691144569    3.07659261343409
Cl        2.05216024199485   -0.31113755024541    4.21897913933623
O         3.28930691978784   -1.39863558901258    1.76266931219025
N         3.04142460070170    1.11935648965750    1.78271307872110
N         2.44768663439063    0.46009871958829    0.77667874515351
C         2.58770694541828   -0.84528045508847    0.85713884373221
C         1.93058048405393   -1.68172778079185   -0.16233304141888
C         2.00199551956375   -3.06896653290408   -0.06384469928724
H         2.53558549157107   -3.50691645585007    0.76607342601943
C         1.38741480909315   -3.86171858720572   -1.01441865644528
H         1.44132326538892   -4.93761741869639   -0.93552711592967
C         0.70053517372651   -3.27723283404576   -2.06629168362184
H         0.22053223281723   -3.89828680106020   -2.80849515911297
C         0.62522925830020   -1.89611976732253   -2.16517778080818
H         0.08575744255628   -1.44388038476320   -2.98435445489344
C         1.23553992786763   -1.09664738052016   -1.21813630158511
H         1.18566460044776   -0.02138914301469   -1.27324216606939
C         2.98851912851552    2.40827948324690    1.74479624818806
H         2.51704200398826    2.85767175705248    0.87427790562615
C         3.43530996401727    3.27590993747569    2.81868369194197
C         4.19410675396388    4.43314787631675    2.54513378522376
C         4.67051491671810    4.74088602452426    1.23711344760038
H         4.43824934040269    4.05864216168550    0.43278932040448
C         5.40642985245231    5.85183678843863    0.99620719306961
H         5.75842251799320    6.07177000810122   -0.00187173929557
C         5.74223750930986    6.75988018080234    2.04114896593554
C         6.48930196587906    7.91684700196741    1.81221297237560
H         6.82172470019596    8.13899121176286    0.80831057573748
C         6.80017642572155    8.77237724772961    2.85280965890004
H         7.37612172700430    9.66546517691698    2.65813531989763
C         6.38127738099974    8.49418821537907    4.14112091199415
H         6.62977950760244    9.16732530077952    4.94909415526866
C         5.63384668305543    7.34794841758749    4.41698245640216
C         5.18753741471177    7.03188145987041    5.73357976002400
H         5.44432738261868    7.71066063166686    6.53446818911606
C         4.46284108212155    5.91514012833145    5.97831811331462
H         4.12828436111908    5.68191505122722    6.97927493950169
C         4.11392665630518    5.01497994710572    4.93081384783011
C         3.36254927772146    3.85921511244083    5.16209722686930
H         3.02410075205905    3.64186477074614    6.16478207554367
C         3.03488117058677    3.00508206109620    4.13064735908206
H         2.41847157953906    2.13690435799309    4.32376035415112
C         4.53757211160952    5.30375355363021    3.60904994599013
C         5.30357267876363    6.46829104390198    3.35597216438071
C         5.29829191490388   -0.00598849343656    5.05085932114648
H         4.98442666417215   -0.00444947955183    6.08950996238378
C         5.59258811524932    1.21123727069533    4.41196361323803
H         5.53026811274172    2.14550734307865    4.95457114327263
C         6.00590098696557    1.20249446460480    3.06036153047996
H         6.26291407214777    2.13924458650698    2.57664581846244
C         6.24496180184126   -0.01853039787323    2.39320650644547
H         6.67185873640991   -0.02440152968622    1.39747943755328
C         5.98093988260571   -1.23131566365048    3.06231588319645
H         6.19396173487657   -2.17194919451040    2.56657314621656
C         5.51040267828375   -1.23487710332987    4.38865718719384
H         5.36428953570654   -2.17027832788783    4.91402350593359

