47
CSD_code = SEVKOU | q = 0 | S = 0 | Stoichiometry = C19H21ClNO3PPd | MND = 4
Pd        9.29856104849557    1.11649889738747   11.08149507478159
Cl        9.63708655112889    2.33623900175338    9.24389759342980
P         8.78692362994027   -0.04338517035632   12.92850349650842
O        11.73690655815243    2.88527925724495   14.31800644236966
O         9.74695590366571    0.20062615877903   14.24129418051491
O         8.48864625472033   -1.63132641805552   13.04513418561088
N        10.73956446523863    2.35125655085614   12.39703710019723
C        11.85700477220122    4.09185340015992   11.09480566633166
H        12.81446170155043    3.58835179886209   11.21469287714966
H        12.02295289158567    5.16289221838371   11.01426990142465
H        11.38188603502589    3.73124053741613   10.18344259895860
C         9.58031957965609    4.45866342571167   12.10859234701633
H         8.95740541006795    4.28791892660575   12.98726198864555
H         9.09575590295328    4.02482751016824   11.22803624494747
H         9.69600432541075    5.52812216723099   11.95410782307735
C        10.94547411774500    3.79548183519225   12.28216840245931
C        11.62347594217122    4.13844414175736   13.63968864202708
H        12.62476221786557    4.55679222305978   13.51492283618370
H        11.02300234401780    4.81171093870727   14.25694916606074
C        11.18915678887065    1.96299682751794   13.51736629037112
C        11.10069451141192    0.56082749990347   14.04264987326641
H        11.59021923110055   -0.12372910199324   13.33822976471898
H        11.59018490078681    0.50708219267690   15.01811896133691
C         8.03526814909698   -0.01201267371340    9.92682548297468
H         7.40283000966709   -0.66339399901192   10.53912533211652
H         8.67591313433993   -0.62356347756956    9.27777868049729
H         7.40883093372148    0.63976447313571    9.31112859086912
C         7.96461382680892   -2.13121318894455   14.22208404185085
C         8.38977017943935   -3.39688253920110   14.59932000061008
H         9.09432426705592   -3.91140587412149   13.96458687065167
C         7.92085344709263   -3.97178002319323   15.76513337742904
H         8.25792660611408   -4.95569272573128   16.05251349311320
C         7.03530484449308   -3.27059042450862   16.56765799355644
H         6.68413909710986   -3.70195247068821   17.49263498380675
C         6.59842888557048   -2.01893762046253   16.18360986168688
H         5.91900824978407   -1.47773480476936   16.82340369881583
C         7.03424729904893   -1.42610089170198   14.99705602068429
C         6.51703245766341   -0.13638265285137   14.53777137435681
C         5.28356623607103    0.37156187653494   14.94940471938825
H         4.67284477851463   -0.18884044304371   15.64033409883331
C         4.81379327069530    1.57350346079463   14.45453230762546
H         3.85835028763783    1.94868224272892   14.79080073206206
C         5.54019745877999    2.28897632317991   13.51261331342725
H         5.15249721304036    3.21470965791890   13.11557174279774
C         6.75094054987633    1.78920326399915   13.07276861221715
H         7.33013084382322    2.29542897781589   12.29320394566923
C         7.24348289080257    0.60468871442714   13.60106926758347

