55
CSD_code = SEVLAH | q = 1 | S = 0 | Stoichiometry = C21H27NO4PPd(1+) | MND = 4
Pd        2.53433422403889    8.76684250206525    0.78569031353107
P         4.19829448971318   10.15045595699956    0.42848252654123
O         2.98053400433555   10.87278269341026    4.48187785242237
O         4.83219362438556   10.71267156839775    1.79967439706482
O         5.44967078579322    9.52012103151940   -0.34499153183448
O         1.01243417774726    7.09732460404990    1.10708059218187
N         2.38697694736267    9.44242859786286    2.89402110601911
C         0.31947362591085    8.66650845930047    3.96996139025226
H         0.04509581735877    8.02221195298734    3.13829325579305
H        -0.58784984455070    9.00256514966232    4.46392905828179
H         0.91586499253804    8.09654035294179    4.67920791718786
C         0.33905688607761   10.58527702867125    2.33468189736146
H         0.84349598926249   11.51420955022761    2.06611400021151
H        -0.67572905157908   10.81221530090528    2.65004545464078
H         0.29381537949064    9.92822501074953    1.45101623203682
C         1.10378011397377    9.86961641468243    3.45336107401789
C         1.55404409575608   10.82057431457780    4.59529571446638
H         1.16321981586006   11.83457967074456    4.49107730247682
H         1.30213398808530   10.43571125916861    5.58613227256950
C         3.32428553270364   10.06824061847682    3.48813811642048
C         4.77049854067494    9.99629309907136    3.04932971200444
C         2.58605363783282    8.22917148608608   -1.17766641058563
H         2.97132143834678    7.20169814900898   -1.21619931084653
H         3.18730258033898    8.84966986482275   -1.84268813782938
H         1.53846195755817    8.26765464408165   -1.50900482391479
C         6.53429139684306   10.36178023811495   -0.60393217921497
C         7.79058965298799    9.78024613574637   -0.55443823922307
H         7.86459653259788    8.72759694520112   -0.33003661021775
C         8.91864530566299   10.54471317336148   -0.79140746291442
H         9.89455046480557   10.08772511523654   -0.75191074468273
C         7.53142499689239   12.47084309810436   -1.12572804564741
H         7.44391454184052   13.52715437055619   -1.32355593660051
C         6.37342975146921   11.71711043263515   -0.91772804348163
C         5.03635347931368   12.29544362294866   -1.07024109773651
C         4.78867419614367   13.43080420609206   -1.84424444373891
H         5.60276637556532   13.92579207682682   -2.34930568676497
C         3.50271997027678   13.91301852513270   -2.00306380349698
H         3.33856211415104   14.79517172246652   -2.60274409605715
C         2.41868506800448   13.26410769099640   -1.42660793171148
H         1.41826109223127   13.63732096833840   -1.57978076131396
C         2.63752543220778   12.12576650576530   -0.67507809522675
H         1.81737932406529   11.55715334905237   -0.24238896312006
C         3.93269780654054   11.67078141524907   -0.47833444415482
C         5.19861780810644    8.53967481668091    2.87150614821383
H         4.52465078253663    8.01854993126779    2.17292712138368
H         5.18164471113270    8.02886239887913    3.83121898762723
H         6.20979543674443    8.51114368867596    2.47182720180754
C         5.68197470560004   10.74152351051917    4.01548482287229
H         6.70513352508906   10.69859905062901    3.65301690454141
H         5.62900871064018   10.29308005732646    5.00301657853294
H         5.37830639725624   11.78212021547061    4.08391245494554
C         8.78572189818742   11.89770598370651   -1.05940495749470
H         9.66186847306479   12.50559652226803   -1.22097259302997
H         1.40289163251827    6.40560510291234    1.65567002594187
H         0.72745466851073    6.68711984935277    0.28106391948631

