60
CSD_code = SEVLIP | q = 1 | S = 0 | Stoichiometry = C24H29NO4PPd(1+) | MND = 4
Pd        3.82124082349838    9.55103520849252    1.27898647783600
P         1.97576895561662    9.12880345214006    2.39798590084134
O         5.73818738982473   10.01374529297806    0.44647059761143
O         1.34833736798641    7.67993225652695    2.06429639812185
O         2.07193969709143    9.13740530482242    3.99957952916512
O         1.98848197267082    6.32474009263406   -0.88537416337747
N         3.30970520673054    7.92997980729764   -0.11881528943248
C         4.32636191974300   11.11624621221670    2.47116954591718
H         4.04676946297354   12.02100536514678    1.90277099881146
H         3.87646853877892   11.16913081518789    3.46710296325116
C         5.85625664859501   11.01239834627957    2.57848978007771
H         6.30414553340764   11.92185629021061    2.99130432633183
H         6.11695005028953   10.18364884364078    3.25107764347822
C         6.41117746549614   10.67623555681615    1.22783758753617
C         7.76776432764539   11.17328540365617    0.85952608822436
H         8.47391092962495   10.97741680319305    1.66346146443631
H         7.72334642880100   12.25376695331900    0.72277655706370
H         8.11420281490005   10.71603753093417   -0.06386469820866
C         3.38792364591492    8.10573680298983   -1.56804881451515
C         2.86920064856944    9.51095479478820   -1.88554408906499
H         1.80489091152612    9.58346266341922   -1.65996368328670
H         3.02526439900930    9.74992966945529   -2.93394281948360
H         3.42194870639666   10.24082279830143   -1.27251137926674
C         4.83325109740559    7.93423406250412   -2.02970443801093
H         5.20553693058603    6.94847223079950   -1.75878457102925
H         5.46014316404615    8.68467201945714   -1.55334185596134
H         4.89655133840894    8.05201225543141   -3.10785635959878
C         2.46129602177362    6.96766887403834   -2.07590526371099
H         1.59669677510084    7.33315968075676   -2.63440997415503
H         2.99386091225072    6.22803915876399   -2.67722382318667
C         2.52159600236816    6.96487017072042    0.14364473174426
C         2.13460689274928    6.58564042351260    1.55599718003220
C         3.39400868062617    6.37521148581280    2.39868661473763
H         3.10663904434299    6.21015368757760    3.43482496079533
H         4.05188144191791    7.25907119728796    2.34441128182921
H         3.94016260599055    5.50671742327666    2.03844611359394
C         1.22743793736184    5.36228849618224    1.57545505534689
H         0.95399569057126    5.13136101067906    2.60115929785528
H         1.73631697021990    4.50992385523251    1.13563447107515
H         0.32247515665024    5.56335326543598    1.00926749133494
C         0.56005219307823   10.19090466464222    2.12471303738913
C         0.56231712261567   11.03999359742376    1.02809975963267
H         1.41370237603010   11.00677004772214    0.34904459009762
C        -0.49125336198105   11.91235530959837    0.83523441956431
H        -0.51081129992699   12.57085010415358   -0.01909083382145
C        -1.51944525766576   11.94750373849361    1.76829160679591
H        -2.33997411890445   12.63501710714792    1.63087080749329
C        -1.49539237650679   11.13522617389194    2.88676309833526
H        -2.28044560562000   11.22558485446907    3.62056502936775
C        -0.45173344901961   10.23040209285019    3.08985872712649
C        -0.34993828476272    9.38920668607470    4.28415730581059
C         0.89340123823925    8.90879055458480    4.71412208651230
C         1.01655301768541    8.19388426277907    5.89433560841798
H         1.99663121928663    7.85982636753757    6.19740057164451
C        -0.10230415262111    7.91981256222902    6.65980060643439
H        -0.00117500899663    7.36252360721192    7.57742300678542
C        -1.34831661992014    8.34787837359225    6.23071229757336
H        -2.22858678103088    8.11676724681174    6.80953253827813
C        -1.46620636336923    9.07509451248496    5.06314459043739
H        -2.44327499407888    9.39138257438569    4.73454931134808

