54
CSD_code = SEVLEL | q = 1 | S = 0 | Stoichiometry = C22H25NO4PPd(1+) | MND = 4
Pd        4.26615315109083    0.99114589529952   -1.46431472431249
P         6.09929243816447    0.04552700913178   -2.23705403243250
O         2.71622866124468   -1.89396790609804   -4.32709941406310
O         5.87837571495084   -1.00590073012989   -3.45903939181515
O         7.34656081118222    0.93044460254807   -2.70064290220353
O         2.66131681524244    1.97829555089172   -0.44131289165021
N         3.08263090656514   -0.29845774964002   -2.82863989942342
C         1.87199792835897   -1.37228165499190   -1.03847502551795
H         2.55767906057465   -2.21944655260341   -1.01750909111058
H         0.89941658037791   -1.69417788531959   -0.67686807804229
H         2.25274668428411   -0.58836738615984   -0.37182777833434
C         0.73309692202762    0.31583679729294   -2.53831896387559
H         1.01396133126555    1.11964061698458   -1.86131495504143
H        -0.24905621629253   -0.05521473145957   -2.25896528331250
H         0.68575541336150    0.71493800744293   -3.54947556396268
C         1.76026261800792   -0.81036057690148   -2.45763529518403
C         1.52399845965962   -1.90535809235549   -3.53300803635668
H         1.40368181443472   -2.90491226155217   -3.10984417212689
H         0.67464889941960   -1.68282876479395   -4.18230561499944
C         3.51286266215018   -0.96019442723543   -3.82872468477519
C         4.87481306610373   -0.79644727223908   -4.43975945596635
H         5.02068654876451   -1.55999710335630   -5.20767516918140
H         4.96312538721847    0.20148735256872   -4.88679844025073
C         5.34579797283427    2.28568811315104   -0.31927519953840
H         6.35601674324339    1.98209280402432   -0.02324225608490
H         5.41950471796925    3.18467695610054   -0.95778817253923
C         8.56168368285512    0.28281496602730   -2.95362756405667
C         9.34137766866769    0.82118313990437   -3.96389613711162
H         8.97524249766554    1.68631415177608   -4.49391710495111
C        10.56112118678251    0.24983175853061   -4.27791488076966
H        11.16397467113263    0.67161723256384   -5.06614643385022
C        10.98987681891946   -0.87278834471192   -3.58797792444633
H        11.92906775751785   -1.33810221468565   -3.84233216903782
C        10.21727023161311   -1.39818479585615   -2.57177354462785
H        10.55669321012206   -2.28099918256272   -2.05421014514982
C         8.99212469071363   -0.82738739960090   -2.21634814964759
C         8.19984604171348   -1.33954922606398   -1.09584241292923
C         8.74903204458760   -2.09113560696444   -0.05429621732671
H         9.80233634213575   -2.32179920132579   -0.05222001444303
C         7.96300887942110   -2.51988382864939    0.99876513948554
H         8.40959729580021   -3.10368625795203    1.78900953971867
C         6.61438367267038   -2.19204181812362    1.06877871052773
H         6.01999772519054   -2.52009319088225    1.90726729976408
C         6.05686303934632   -1.42738457896291    0.06301498875337
H         5.00825287668915   -1.11069025599832    0.08883741138516
C         6.83793505692906   -1.03417677125943   -1.01535825374183
C         4.48758349290458    2.58677640557623    0.91824914167611
H         4.57965831665055    1.76404369946075    1.63909717428152
H         4.80825991339785    3.50124378945107    1.42638953042875
C         3.04768871572462    2.64846485087552    0.51029409252614
C         2.11352888538241    3.52249706531587    1.27464529481332
H         1.08010076492245    3.31961518582735    1.00517287313258
H         2.33718908773093    4.56387679975072    1.04271443350663
H         2.25755034058375    3.39096301792820    2.34463981419200

