45
CSD_code = SEVLOV | q = 0 | S = 0 | Stoichiometry = C18H20Cl2NO2PPd | MND = 4
Pd        9.85496418200338    3.11679872896828    5.23631170936818
Cl        9.48278190651224    1.39878751409386    3.80661470451799
Cl       11.28770892127563    4.03377329422413    3.79046035227961
P        10.74157823770886    4.57850043074300    6.71537554243579
O         7.17697804944089    3.00815409848024    8.40786989577559
O        10.08699936930941    4.44760495712411    8.22269079986025
N         8.35408478533868    2.58285675546474    6.56651760880601
C         6.65111748635349    1.12359006612617    5.56923535956584
H         7.33918958578891    0.88415273407933    4.75891390175010
H         5.62988725735704    1.09117548899722    5.19958600641542
H         6.77164484086039    0.38206971295433    6.35633326884362
C         6.78813023492071    3.58135857972904    5.00812415212963
H         7.03306822167542    4.57514517035517    5.39618566843762
H         5.76114936752018    3.58302827497618    4.65101635047273
H         7.45172734650923    3.34708000093469    4.16132074413110
C         6.96686393417751    2.51945742387543    6.09814849017628
C         6.17724553410315    2.84374993952186    7.39795601107426
H         5.60466875660435    3.77253883344509    7.32823092379142
H         5.51375903642635    2.03004712838104    7.69824741491396
C         8.36171438808706    2.86573116015924    7.80712942878163
C         9.59506020289331    3.17414271557022    8.60186589052433
H         9.34307948807397    3.23540147795882    9.66331952294043
H        10.35206944038763    2.39502566201684    8.43759778529266
C        12.42524002327603    3.92530233479221    7.01569334133466
C        12.73393862422759    2.64603716800569    6.55923083474159
H        11.99898699999470    2.07625498689700    5.97143199848242
C        13.97994520614463    2.10324390524683    6.82156426410717
H        14.22402688395876    1.11561019131309    6.46003630015020
C        14.91458770061760    2.83056747033034    7.54109523376436
H        15.88867745204915    2.40846481933278    7.73879699768143
C        14.60468013788822    4.09923207686951    8.00507316622577
H        15.33516910847920    4.66349321836186    8.56592750472082
C        13.36132064105919    4.64758478416234    7.74699213608788
H        13.11127994835153    5.63686228783298    8.10420848371501
C        10.96315186765852    6.36926544845395    6.67354931826362
C        11.80741745096276    6.88975117506131    5.69568973172550
H        12.29974203068315    6.21534666287298    5.00914940098826
C        11.99307423098471    8.25664674323849    5.60794589443675
H        12.64964746798476    8.66175979001769    4.85272752390191
C        11.33631804552530    9.10533644320432    6.48597446749796
H        11.48421899637279   10.17293893835942    6.41721527949385
C        10.48555753846012    8.58699380241479    7.44867818129166
H         9.97005158506659    9.24991731832344    8.12822718484303
C        10.28997397166301    7.22026660472568    7.54195765617553
H         9.62862351526767    6.80955368200857    8.28958356808868

