34
CSD_code = SEVNUF | q = 0 | S = 0 | Stoichiometry = C9H15N5O4Pt | MND = 4
C         2.61713891001219    5.79206652786816    5.01054078662590
C         2.68380941024953    5.27358204647255    3.56367630120357
C         1.54800835843232    4.32443581712663    3.16546196393602
H         1.91025578091158    3.37950002852806    2.76703592325158
H         0.85613475593317    4.13521317010548    3.98301378878240
C         1.06456410790872    5.33910096038230    2.11852954133999
H         1.13665208110033    4.98811926653079    1.09098865944885
H         0.06097892243681    5.72253178086704    2.29190042210737
C         2.18604131632954    6.31160871444330    2.52304536303935
H         1.82559220722575    7.24641936658603    2.96148149277378
H         2.89986951257331    6.52929172008122    1.72312251358602
C         4.09768896187300    4.74807109348063    3.25939514723898
C         5.74248600172709    9.42686906794275    1.78904009293542
H         4.85281782356631    9.30275751475894    1.16700146040060
H         6.58170088018582    9.70585463810354    1.13594022868247
C         5.49458841705088   10.59488382607133    2.77245320488811
H         5.44169721464962   11.51578255440713    2.17142238984049
C         4.17817253414136   10.48529905373430    3.56374004585284
H         3.99049888312222   11.45743438359132    4.03865151295773
H         3.36068784195683   10.27817362551585    2.86902253061002
N         6.01799019564150    8.16849196960481    2.48085405926473
N         6.56272024354062   10.68139321663780    3.72890748657955
N         7.63290834081252   11.18087814109364    3.58394405832881
N         8.67585132276842   11.58538961750477    3.64625843963574
N         4.23907684392604    9.42278526062694    4.56606762595898
O         3.31586675823221    6.85542184874783    5.26158784303437
O         1.90176970166844    5.26906215252436    5.83510938508779
O         4.29483434018746    3.58225727412118    3.00014214033365
O         5.03717535673139    5.64141408205028    3.23183848855453
Pt        4.59208067784062    7.49361134058325    3.85568727049475
H         6.10979565550267    7.39359314059710    1.82033180482310
H         6.89774310485273    8.22651860178091    2.99812594476514
H         4.97833256408894    9.62923410582038    5.24143994043104
H         3.36187097282001    9.35015409170436    5.08584214320563

