30
CSD_code = SEVNAL | q = 0 | S = 0 | Stoichiometry = C13H11BrClNO2Ru | MND = 9
Ru        6.44152842784179    5.88703287495333    2.66053200133559
Br        4.12769593630573    6.64299521538410    7.87500646270208
Cl        6.84560078118962    8.16586865215154    2.94393028842497
O         8.45942781992238    5.58360340444442    2.96694131945359
O        10.02961801182462    5.47624480642498    4.53900173571313
N         6.53231239385316    5.91541405955568    4.64334788291991
C         7.76627290473059    5.89649507582458    5.17702517878205
C         5.65837561933890    6.34311938664140    6.80616929561721
C         5.49456167666996    6.14431509414341    5.44571498321579
H         4.51230553142120    6.19283706704277    4.99105484290581
C         6.59977424896406    4.39511574970471    0.93566239709926
C         6.27049098873026    5.66887896648452    0.40505639363944
H         6.87403171450906    6.08597716507944   -0.39297191756033
C         5.76382031406745    3.83190622582273    1.92398558354507
H         5.96360073968752    2.83272818389660    2.29296854566833
C         6.92601822322471    6.32254017694612    7.37483763293487
H         7.06172220506311    6.48690678127784    8.43222047496458
C         7.99702128930630    6.09636714575245    6.52864209668587
H         9.01723057963914    6.07504906331245    6.87896149519472
C         8.88709416524023    5.64014453782359    4.16835726708088
C         5.12559410263260    6.35652365955785    0.85191449314818
H         4.85934881089606    7.30587868964748    0.39852929796402
C         4.28589417349953    5.79492179796756    1.83673775720943
H         3.36318736961367    6.28822522123806    2.11787427914309
C         4.63853716954193    4.54606177783270    2.39794100034233
H         3.97415228007913    4.07258597686853    3.11459863023223
C         7.81879080596548    3.67354951858838    0.46123783683071
H         8.00010950593229    3.86171733447898   -0.59472695902016
H         7.73698514467170    2.60255049783804    0.63240136280973
H         8.68079706563840    4.04474589331533    1.02194834101686

