70
CSD_code = SEVRUJ | q = 1 | S = 0 | Stoichiometry = C27H38ClN2ORu(1+) | MND = 9
C         6.15499956483489    1.56359982558578   13.99348994832688
C         7.51360385173952    1.58830750169661   14.40971326728769
H         8.28990983863138    1.80804884305579   13.68605222874856
C         7.86367708705367    1.40156312315405   15.75199345023147
H         8.90346773030585    1.48312581610597   16.05291711683370
C         6.86414777154094    1.26071593027512   16.76044026012493
C         5.52921471096921    1.21407778201560   16.35430793035172
H         4.74356801650045    1.16753004846185   17.09826861888576
C         5.18312942965923    1.30954717067984   14.98035796402079
H         4.13221108743643    1.34167333904224   14.71000489575804
C         5.75064504818365    1.94899409608401   12.59125853924213
H         4.73397288761180    1.57942001005296   12.41091088462707
C         6.67662187248244    1.37855170556627   11.51614777264285
H         7.63489349333875    1.89030567930682   11.51056600070043
H         6.22470972946597    1.51171239103705   10.53714186418840
H         6.85379844654352    0.31621404766780   11.67345747790058
C         5.71688776360240    3.48094844594227   12.51291081157688
H         5.01780997755826    3.89066069866047   13.23833136570887
H         5.40534207813912    3.79102334940545   11.51947848876134
H         6.70255044183607    3.89564157380676   12.71031734877196
C         7.25530157365417    1.21914586440731   18.20178326398745
H         7.71418491913271    2.16600779459668   18.48658976674981
H         7.98894026749842    0.43235887163677   18.37563667830795
H         6.39212576100364    1.03697949005909   18.83696813747034
C         6.97438105712179   -2.42239702977029   13.03892309923846
C         5.54157246764353   -2.67980042026222   13.45712742050694
C         5.21447596372119   -4.18057055888385   13.38569063965434
H         5.68567281596876   -4.68874319695323   14.23072700275995
H         4.13567052043975   -4.32419100782772   13.45322639782578
C         5.72733594493654   -4.82231395897515   12.10048803091733
H         5.25656758001584   -4.35893709437843   11.23264412295643
H         5.44764443318226   -5.87582210544982   12.10346580710769
C         7.25168909146039   -4.69522762805414   11.98555371447377
H         7.55585838560479   -5.12418925871357   11.02622968679766
C         7.63545387465282   -3.20936118260437   11.96521701282804
H         8.71749447234080   -3.08685432200626   12.04718820424035
H         7.33234554860436   -2.78503962155543   11.00268032490796
C         4.63332578186199   -1.85494417892092   12.53693575130360
H         4.75564248808127   -0.79517457037295   12.75669632258870
H         3.59091256452996   -2.13529484986565   12.65770790159740
H         4.90544209880673   -2.02187959148972   11.49911894468615
C         7.94774977301757   -5.48105056546130   13.07611016557511
C         8.20869145344552   -6.91461600496747   12.73024574996838
H         8.93987274403311   -6.97568139865921   11.92490975545726
H         7.29872150626630   -7.40284965738125   12.38556906429697
H         8.59496571748007   -7.45883276740946   13.58642419172299
C         8.29412291980449   -4.96951766605415   14.24649182936213
H         8.13974776528375   -3.93698499446349   14.51554950886350
H         8.77683412080512   -5.57163599909779   14.99628478944867
C         4.08588139116799   -2.14475703063197   15.41723174307674
H         3.64781580195687   -3.15192736346870   15.40069403864231
H         3.46545599924322   -1.49157148280701   14.80061375139173
C         4.06724790755258   -1.63268164283246   16.83763841367026
C         5.01830339123683   -2.02634684024663   17.77312833563963
H         5.79894204221636   -2.72695834620442   17.51538071106964
C         4.96140096422361   -1.54631252609442   19.07149002408252
H         5.70987905148928   -1.85471655703519   19.78505317784468
C         3.94449961032167   -0.69008592980383   19.45768714386635
H         3.89904918592936   -0.32367653327553   20.47168801079749
C         2.97483363470327   -0.31926703977937   18.54054847409515
H         2.16824693319460    0.33356098815090   18.83764172267780
C         3.03998556364656   -0.78422302432373   17.23847745857796
H         2.28080125690930   -0.49036843347133   16.52747934910943
Cl        8.13091683598102   -1.83234021696128   16.33943401927793
O         8.82075350902070   -1.09914872127664   13.35074351615643
H         9.31920041192746   -1.21747876782382   14.18644808533849
Ru        6.69967040809353   -0.43924080413059   15.08646488135129
N         7.51507827603233   -1.42847704705762   13.64240066164073
N         5.44582365297229   -2.18330951539818   14.86302741831588
H         5.97430973432698   -2.85681693424751   15.43637954308355

