106
CSD_code = SEVWAS | q = 1 | S = 0 | Stoichiometry = C35H67OP2Pd(1+) | MND = 4
Pd        1.61090205501638    2.85535144154274    4.11962512667430
P         1.99484690589200    0.65616456155716    4.75998710542647
P        -0.17196493863516    2.55035914127094    2.59903153010722
O         2.85773303212093    8.22169413379661    2.22724446488625
C         0.71213291638574   -0.47204049148806    4.05326754457657
H         1.07899196965854   -1.49105012007592    4.18620226743744
H        -0.18924476386224   -0.36370585766899    4.65961340034829
C         0.34824632216408   -0.24501010725590    2.58449994847170
H        -0.01595241881732   -1.19145666790625    2.17492565890496
H         1.23257357560820    0.03966794261796    2.01614728162411
C        -0.75060499869096    0.80202759154763    2.40134239164274
H        -1.53104493863482    0.61299714902283    3.13917449550966
H        -1.20333583816144    0.69482742647732    1.41355096051277
C         3.61871869399673    0.04553783093845    3.95286071215390
C         3.59615467414072   -1.43472613029241    3.57500794472579
H         4.57007172338185   -1.70298333371351    3.16838264721681
H         2.85216673599906   -1.65567265541715    2.81479493422641
H         3.41724952505876   -2.06800612233422    4.44053317362119
C         3.80862791687954    0.89772794402060    2.68894695575601
H         3.49122159109954    1.93926962463145    2.86418591222452
H         3.24475291122543    0.49189002232823    1.85200748291331
H         4.85697376918181    0.90457405686904    2.39567690240066
C         4.80845685075193    0.28533665392389    4.88279124530430
H         5.73540033064826    0.14540954450372    4.32855965300647
H         4.81318444299293   -0.42503054360803    5.70338201552521
H         4.80629053344708    1.29499956339228    5.28379508658853
C         1.81097044206606    0.24085320034538    6.61055884805303
C         2.96690004099331    0.76564862436135    7.46382843725807
H         2.65302580081994    0.79259758011991    8.50611766524913
H         3.25217675870108    1.77216982764559    7.17796860629083
H         3.83693452606549    0.12105974243220    7.40800757753892
C         0.54471780282685    0.99764926825233    7.02548225434364
H        -0.34891730119122    0.57380902934464    6.57355354402379
H         0.62636431787410    2.05093626721835    6.73636087937136
H         0.41646120951488    0.95006790873513    8.10470125934272
C         1.65452375031047   -1.25551729031550    6.87445072465434
H         2.50467357028482   -1.81557505651110    6.49256316671773
H         0.74263427317035   -1.66151892597246    6.44688198068750
H         1.61135777347626   -1.41704319471096    7.95027513563007
C        -1.69610506445483    3.34929300379863    3.39403878156813
C        -1.49991698593457    3.09043678727647    4.89326193705038
H        -0.54156000213728    3.52315011397553    5.22998453133650
H        -1.50116488979075    2.02146966161298    5.10610403653641
H        -2.30239169430332    3.54930572387855    5.46858101351247
C        -1.64884460113219    4.85716974762526    3.16261576173188
H        -1.96184067794185    5.11508050622073    2.15458987283271
H        -0.63714706634491    5.22881218083591    3.33139771972987
H        -2.32635772117351    5.35923247538766    3.85271623151886
C        -3.05145255780374    2.80327577809075    2.94616966533134
H        -3.83596171915107    3.44565162059816    3.34339133279836
H        -3.23639539325927    1.80002764631612    3.32048592489940
H        -3.14747388714934    2.79065394389635    1.86516885713239
C         0.05023390335409    3.14534317848376    0.81440242175000
C        -1.20837045858806    3.14216625862540   -0.04598628048828
H        -1.93529783107751    3.87161045543492    0.30003270447991
H        -1.68060379655684    2.16256019438804   -0.07632273377797
H        -0.93776554824306    3.40719390994517   -1.06709696968165
C         1.09058334714684    2.19825924650669    0.20718235465328
H         1.40434724679235    2.56570676253077   -0.76848432491200
H         0.69183807107756    1.19609659075496    0.06824435380974
H         1.97105463152926    2.15124207140773    0.85105142998768
C         0.66090638590045    4.54944049637689    0.85604545535860
H         1.40669524132745    4.62102990709480    1.65370449347799
H        -0.08687553358668    5.31873561263030    1.01727095990726
H         1.15158147405240    4.76784993765393   -0.09092745748434
C         2.95745457474975    3.64712719977979    5.44047813830477
H         2.50597456220352    3.81741483942484    6.42130299126346
H         3.96758506310196    3.24871524403455    5.50398802434397
C         2.80957935298736    4.74284450751525    4.50841494516548
C         3.65573046330333    4.84578670974771    3.38709056927681
H         4.40541191198796    4.07640913910700    3.25118370385324
C         3.62791413980069    5.93117103111317    2.52709614612806
C         2.78130986503725    7.01086542297241    2.87471283834528
C         1.80937162737943    6.88098522204519    3.89569317470041
C         1.81594681648114    5.72927337065138    4.66942401779867
H         1.15031457100063    5.63836989266743    5.51821799883462
C         0.79433986329571    7.99064726952913    4.17946849370085
C        -0.19542209195800    7.61288399344856    5.29011091043157
H         0.30611409951461    7.52727477938368    6.25208861784398
H        -0.72512454704001    6.68954842147030    5.07626910485887
H        -0.93815064569879    8.40243359470657    5.37612345387542
C        -0.00819336136790    8.29516508323176    2.90634842269336
H        -0.66636707691919    9.14170452950829    3.08509922487463
H        -0.61985810360342    7.44264650029627    2.62238994646988
H         0.65232087757097    8.54020604538791    2.08117557604810
C         1.50645713878464    9.26961188861081    4.64986543457638
H         0.78388585480582    9.93221358884741    5.12013312898747
H         1.94722095004164    9.80404196098722    3.81816196183906
H         2.27763830228025    9.03721007710001    5.38230638650956
C         4.51046369373870    5.84288636529401    1.27716859345755
C         4.00654534824532    6.72761409059557    0.13080711839371
H         4.13416069724494    7.78558010844091    0.31880066022665
H         2.95024660039906    6.54320050954745   -0.05099543703989
H         4.55814863299527    6.49130516969149   -0.77661205254955
C         4.49700070741994    4.39510110881840    0.74316178425231
H         4.91122494707461    4.37886580397397   -0.26153472833162
H         3.48481778581740    4.00351419105039    0.69841801601863
H         5.10683629666926    3.72893330374398    1.34723933985097
C         5.96810474981336    6.17675308735446    1.62820819839656
H         6.59197291689343    6.05125958811396    0.74652635754545
H         6.33536933953024    5.51143335869091    2.40720624089780
H         6.08612151700655    7.19632908319007    1.98197087858785
C         3.97227666212440    9.03631439437940    2.55274242265652
H         4.16177318522055    9.04410358589093    3.62899317640201
H         3.71538465377744   10.04116964107897    2.21929474479393
H         4.88281164204500    8.72200290750361    2.03875248169952

