131
CSD_code = SEVWUN | q = 0 | S = 0 | Stoichiometry = C51H72N3NbO4 | MND = 6
Nb        9.16000482328807    1.67293286254183    3.96495860293487
N        10.87587354321671    0.66057469597366    3.77686346142779
C        10.32558854618801   -0.23702754773368    2.88874789407685
N         9.01703134771896    0.13528947629637    2.69839697920426
O        10.89615512154093   -1.18407387470907    2.36618899942375
C        12.19379863485661    0.31394654587393    4.26020527829454
H        12.33721094108048   -0.76866380697413    4.17017715776497
H        12.29130887089487    0.61917950844765    5.30517580869616
H        12.97696055875074    0.80715886785262    3.67002462380533
C         8.27487278761349   -0.62558957735246    1.71885569623887
H         8.37966105031742   -0.18403096499108    0.71718666144611
H         7.21785203276755   -0.64551716876198    1.99126442172854
H         8.66857579320751   -1.64696696771533    1.67856432014364
C         7.40239509579947    3.37838450477871    6.41414181915328
H         6.84543119582264    3.95084402291684    7.17170159075655
O         9.69897718782082    3.35460269257654    4.62105147747294
C         9.89139689047185    3.77129922835700    5.86827378920957
C         8.85643183356209    3.61737789134935    6.80446873333142
C         9.11582742830060    3.82648160730603    8.15237428355973
H         8.30415820012170    3.66744428866943    8.84501738016354
C        10.36129335919979    4.22639950467581    8.60412571084122
C        11.31439461773044    4.54351020000506    7.64023402146120
H        12.25481569426105    4.94925371075061    7.97053083415585
C        11.10648579465234    4.36587596943071    6.28317634705718
C        12.12005458261308    4.85110221199909    5.24962956711663
C        12.70179244149364    3.67240033199674    4.46188445906053
H        13.24478154848825    3.01132972170527    5.13387624668026
H        13.39287272772428    4.03483250207981    3.70133749962844
H        11.91244610040153    3.10286720226037    3.97255553237805
C        11.39652823195088    5.81179362764600    4.29324433242631
H        12.08240000197015    6.17531598649366    3.52943599271352
H        11.00628987151053    6.66530415690836    4.84471524694213
H        10.56684526788287    5.31067075198597    3.80130571071603
C        13.28969146602904    5.61816000926594    5.87722731468406
H        13.88662135832693    4.97467862452030    6.51893604952119
H        12.93755293517035    6.47160826273138    6.45187313475584
H        13.93726138703049    5.98992768968300    5.08517160293433
C        10.69811053732887    4.39407450478904   10.07793493224485
C        11.91957222458500    3.52650555345612   10.41199753372139
H        11.70702061352119    2.48244849267926   10.19294017672427
H        12.16711499932884    3.61553947708499   11.46796010862517
H        12.78861920444283    3.82555841288655    9.83283449569160
C        11.01485910866398    5.86871210724599   10.36423526599259
H        11.87647195998108    6.20587849924471    9.79477784613475
H        11.22962292845384    6.00835272200263   11.42178851542816
H        10.16484890260640    6.49366349242561   10.09847599823901
C         9.54772571756883    3.96481538669117   10.99271654924821
H         8.67479921083077    4.59690862969363   10.84788156581149
H         9.85683033408199    4.05457548597864   12.03238248741224
H         9.27154676920161    2.92917775469921   10.80958470478451
O         8.81390735411308    0.95940015073280    5.65549034218203
C         7.69911365503655    0.81285430759313    6.35821066759654
C         6.91685914273563    1.94950139787616    6.62701082356758
C         5.67068840861776    1.79742318474951    7.22182545289347
H         5.08719409637728    2.68894514540189    7.39132206099541
C         5.18097963698856    0.55756241069676    7.59224678871047
C         6.01549881247868   -0.54016827005852    7.40551253603208
H         5.66664704029468   -1.50381357739521    7.73311314442182
C         7.26492334638977   -0.45268661769695    6.81565175095546
C         8.13252553043030   -1.69242238910416    6.61683528729524
C         9.58374135565910   -1.40897185384415    7.03188379023013
H        10.17373627847162   -2.32072645614785    6.95821740127100
H         9.61841782952866   -1.05514036865409    8.06121720310074
H        10.03999179963114   -0.65829414242004    6.38875267252001
C         8.07912113987957   -2.08214635487268    5.13386978277181
H         8.43184011262185   -1.26127360130656    4.51023549945808
H         7.05712421832302   -2.32299649459677    4.84417979366818
H         8.70784016854260   -2.95094362458473    4.94775717522705
C         7.64612961208053   -2.88748712868933    7.44763764905922
H         8.35393209178875   -3.70707767224327    7.34166841230719
H         6.67823058599662   -3.24632754808994    7.10606373945155
H         7.58137577369252   -2.62927769617203    8.50244268003930
C         3.80736751132976    0.35572275609579    8.21439540918941
C         3.02098236241898    1.66357675907465    8.33928000511770
H         3.53182072962898    2.36611532326793    8.99351654053579
H         2.04127554505698    1.45894291291770    8.76693526203099
H         2.87448286861441    2.12477739081169    7.36546294117623
C         3.96958598527273   -0.24030245295765    9.61976540232938
H         4.45978862015866   -1.20898312508741    9.58489076342434
H         2.99593483072161   -0.36795580511846   10.08866583103731
H         4.56863767557908    0.42208028461513   10.24102191182064
C         2.99687865323558   -0.60456885718892    7.33268292920863
H         2.90000195871688   -0.19794525326347    6.32833489030542
H         2.00064134949721   -0.74647042868338    7.74701507366650
H         3.47698272669714   -1.57627085082700    7.26098643645315
O         7.33261770503010    2.13708678111399    3.76733952335563
C         6.75580414703747    3.31583603152600    3.91311784387898
C         6.96288204095889    4.03244676499804    5.10693678662319
C         6.63338142111823    5.38026642461605    5.15320672211414
H         6.83939775998638    5.91167511107419    6.06924458390301
C         6.06186527484550    6.03326436778146    4.07279347283020
C         5.68574156796716    5.25290167610924    2.98218236568767
H         5.14628902618328    5.72421062672518    2.17868916201682
C         5.97750901517402    3.90283063225201    2.88574431425674
C         5.45949099928042    3.04136108411832    1.73779903492300
C         4.77830670305838    1.80137234557546    2.33690106507317
H         5.48291723952315    1.22075353707657    2.92871940791498
H         4.38722368246502    1.16685160687763    1.54375201532800
H         3.95323419135543    2.10176185286922    2.98012492087497
C         6.60882215678737    2.59889799148150    0.82299074858332
H         7.09749821661848    3.46552085310663    0.37755827261506
H         6.22155696297734    1.97382027600739    0.01985504500947
H         7.34290582953562    2.02319444005745    1.38523958374880
C         4.42303620223450    3.77554568285549    0.87928720922328
H         3.60366290022407    4.14729628826423    1.48987683570655
H         4.01174200022921    3.08455757861233    0.14617565864967
H         4.87041195764439    4.60560538081987    0.33675614051190
C         5.79600757571105    7.53081199932619    4.04893716618517
C         6.24966103252317    8.22744783420151    5.33442713176468
H         6.07229279268356    9.29792252212340    5.25002801506370
H         7.31203208877065    8.07369786836191    5.50869223976945
H         5.69207033925514    7.86194019453263    6.19328255497705
C         4.29408539109151    7.79023984708526    3.86950392884377
H         3.73410787380685    7.31651748113202    4.67269812196274
H         3.93224002084662    7.39638278610871    2.92404053188199
H         4.09245845569868    8.85931175200460    3.89088605481678
C         6.57339068477098    8.14389510069351    2.87461517980038
H         6.40501239258296    9.21802345804050    2.83035592153206
H         6.26258116835365    7.71034695798719    1.92771011690079
H         7.63999328921949    7.96645987380397    3.00021719537159
N         9.71612175354146    2.91710930429985    1.98763727100601
C        10.60453189865829    2.46607844575648    1.10380196162127
H        10.93042266895494    1.43914605475673    1.22454929322094
C        11.10095961983724    3.24646690090639    0.07184035160620
H        11.82042632903456    2.83295902803474   -0.61692231682152
C        10.66084456112708    4.55522941783831   -0.05155542143922
H        11.03186332427237    5.19199162920606   -0.84063947121083
C         9.73047557716350    5.02292306666897    0.86183710320898
H         9.35154279791561    6.03143264291029    0.80813611827631
C         9.28655744735296    4.17176388761114    1.86217436418267
H         8.54814332962796    4.50490589015021    2.58314906270613

