100
CSD_code = SEWCEF | q = 0 | S = 0 | Stoichiometry = C48H48ClOPTi | MND = 12
Ti        4.81291119571132    4.43005325790865    4.80534441713378
Cl        4.83772303432300    6.63838166565457    5.23213348069290
P         3.79105182050740    2.50273238053853    1.74329941683732
O         3.87853617302653    4.67610198684675    3.37847271202377
C         2.89782158184129    3.30890290624322    5.51934628408748
C         3.16026937092410    4.42557757970491    6.36310344434067
C         4.35634398433293    4.15159629684899    7.09703581286863
C         4.83229774849822    2.88525550912179    6.69105539875140
C         3.94926902320024    2.37588660857060    5.69171109353562
C         1.63091875015388    3.11141638210906    4.74457149059339
H         1.46327201097080    3.93119372198278    4.04322246808906
H         0.78145591999769    3.07837663843156    5.43062717092263
H         1.65711487718324    2.17977450654406    4.18459463890073
C         2.19575088413682    5.54897846803592    6.60197678235485
H         2.68984963715990    6.39793082274107    7.06998646921443
H         1.39027495206819    5.21068954849111    7.25950855206637
H         1.75227859664427    5.88150893315750    5.66165017524932
C         4.89349820967677    5.00393756729815    8.20784536752092
H         5.93675613304154    4.77531773060323    8.41998500293895
H         4.31372229581107    4.84075765311492    9.11951178323920
H         4.82972988141953    6.06000802133559    7.94742707597488
C         5.90007475410465    2.07765289797885    7.37343409620520
H         6.55467210036580    1.57090765690225    6.66413452138924
H         5.42837476949591    1.31174887913121    7.99417597261872
H         6.51175580203306    2.69978315511065    8.02421426573358
C         3.97056599227104    0.98597029191159    5.12836239514994
H         3.83268185915669    0.99575628312838    4.04499444066592
H         3.15929498256703    0.39797765946155    5.56321815885078
H         4.90803116485841    0.48326200680559    5.35615208213074
C         7.40308247676655    5.33017173512206    4.44429370700416
C         7.11380412284630    5.17978261611672    3.07361845395985
H         7.27817952440774    5.93155514736656    2.31739259706433
C         6.63688980156367    3.89048987578712    2.85382354909271
H         6.42220708090131    3.46031427814440    1.88595050947227
C         6.55071888820425    3.22254956119631    4.10028477845855
H         6.47036051593069    2.14699955801383    4.21215729370956
C         7.04360321785333    4.13308163561945    5.09790149435979
H         7.36717770884332    3.86632645038905    6.09575258287038
C         8.07004803855220    6.54176559062072    5.03944827739858
H         7.48450392375275    7.42738764724041    4.76198950300030
C         9.47485564104187    6.72070041692694    4.49833618419577
C        10.21533478568678    5.65946673919325    3.99787500751660
H         9.77110235541501    4.67617831572632    3.93941866417454
C        11.51425788846602    5.85075680237815    3.56097342084592
H        12.07381447843384    5.01099280459094    3.17237405094787
C        12.11022246713049    7.10243426011498    3.61651075812872
C        11.36692527251618    8.16319144405384    4.12063647339871
H        11.81246233558912    9.14686962322997    4.17294115251641
C        10.06966942602073    7.97509513984047    4.55575300135037
H         9.50897317086070    8.81103820604189    4.94987304052358
C        13.51112370726053    7.31708958162761    3.12751975749145
H        14.05902946424153    6.37839764895475    3.09186311166203
H        14.04349360063218    8.01214288753111    3.77382044280388
H        13.49585936053527    7.73997691854816    2.12227531130498
C         8.14083861701876    6.48059567687197    6.54883863999620
C         8.98389899286786    5.57624678972233    7.18461856205945
H         9.60499278578960    4.91856472578117    6.59305764441026
C         9.04852518663074    5.52065580618868    8.56451027749792
H         9.70784098328062    4.80725971555076    9.04038531055360
C         8.28562231055400    6.37646701076667    9.34933915197114
C         7.45948976924234    7.29204560933893    8.71117492874852
H         6.86515520001386    7.97339526808869    9.30379896294783
C         7.38638452788008    7.34413015363673    7.33057840811319
H         6.72884213935525    8.05637562359210    6.85493124661982
C         8.33684242193503    6.30117040977449   10.84603499334057
H         7.55063396368935    5.64068872419433   11.21528892224715
H         8.18285717627821    7.28305506601953   11.28796125722567
H         9.29339991384080    5.90836509843390   11.18342431864048
C         3.98580924498111    5.14911261471639    2.14811863132466
C         3.96122036458199    4.21380153557397    1.09624073946135
C         4.10625264203728    4.63620227149948   -0.21333848317510
H         4.11601267134198    3.91445119074230   -1.01769831703697
C         4.24184857542689    5.98806928573170   -0.48680121049169
H         4.34908088974592    6.31936794566163   -1.50892413547035
C         4.24146856813778    6.91333469716361    0.54573661745840
H         4.34655878564263    7.96510251999313    0.32308103793439
C         4.11658149192610    6.50887676674352    1.86282513708608
H         4.12581396958376    7.22207240420702    2.67654390204202
C         1.98956015887567    2.25568725991926    1.47954071687597
C         1.50659674662997    0.95206051851179    1.57530779855776
H         2.20423072234465    0.13962188461228    1.73606688842233
C         0.15563563325629    0.69262513687824    1.45168667934660
H        -0.20731934855408   -0.32295322144667    1.51797955899329
C        -0.73313625094683    1.73619738636771    1.24614886130339
H        -1.79009411302721    1.53572960964763    1.15059308683821
C        -0.26253278524137    3.03560337002325    1.16524267716879
H        -0.95337245304957    3.85127059424064    1.00660323930733
C         1.09130540480261    3.29775072953420    1.28423533240348
H         1.45180362760576    4.31550506836461    1.22084651948183
C         4.39097899307510    1.55469866439554    0.28499399182099
C         3.65318499531975    1.38781708597983   -0.88284565164867
H         2.66121097818116    1.81128251248576   -0.95930512955898
C         4.18154003642944    0.67492244112847   -1.94345766867162
H         3.60307869761347    0.55330337954143   -2.84821402538144
C         5.44685517347806    0.11806998828403   -1.85075784273024
H         5.85520360298986   -0.43741996626541   -2.68227902367015
C         6.18328864601756    0.27061277559600   -0.68851898276144
H         7.16765125581907   -0.16762579753400   -0.60908432963883
C         5.65519649543925    0.98224416393719    0.37361821251835
H         6.22566583205531    1.09529760569286    1.28619445433155

