42
CSD_code = SEWCAB | q = 0 | S = 0 | Stoichiometry = C12H23CoN3O2P | MND = 4
Co        6.66342951212617    7.73267246066572    8.65207941340513
O         8.99869707819613    7.73512403964864   10.41647860243723
P         7.43035120279420    7.87298137723271    6.52248729380806
N         6.61282419724927   10.80993432403691    8.90695106755224
C         5.85577087303221    9.69083852512070    8.85942004371384
N         4.57918595753853   10.13519465014195    9.00384322350095
O         5.93775189322732    5.18664936530008    8.03298561008240
C         5.83774589429458   11.92255099943381    9.08091454717203
H         6.24943784281712   12.90891986289553    9.14700615145001
N         5.92679560074308    6.29273050035312    8.47881131491754
C         4.55675879052047   11.49716177866057    9.13907710019838
H         3.66476727381689   12.07146719671260    9.26322780814957
C         8.04456879081262   10.88050635381694    8.82917644529703
H         8.34077640712799   11.75537007343702    8.24863169433083
H         8.42193601563274    9.97561211039141    8.35426317022579
H         8.48119730777106   10.95553177171025    9.82799677111752
C         3.39157787877088    9.27556469876386    9.01386231439163
C         2.11685132614752   10.10060249423946    9.20515649611200
H         1.26623123455435    9.42388960208068    9.21552570302876
H         1.97201637623578   10.80722517282999    8.39033225898641
H         2.12838059198649   10.63645039979948   10.15185229603554
C         3.52035933296569    8.28706987783472   10.17460031115294
H         2.69256451087564    7.58403816050628   10.16369468568498
H         3.51814809395467    8.81795630152646   11.12453045521928
H         4.45586713787582    7.73242107414231   10.08942377333906
C         6.82793426508221    6.57544803537756    5.37603734802911
H         7.33210454294145    6.64427252029769    4.41249839967652
H         5.75311968505129    6.68872644898398    5.23963208347648
H         7.01428178720015    5.59904674045644    5.82126835096011
C         3.31238851424858    8.54684486500200    7.67049988069518
H         2.46754571174008    7.86434440518573    7.66183503344527
H         4.22542113259618    7.97710448419691    7.50660748565370
H         3.19389609304384    9.26241566149049    6.85834314087321
C         9.24007741720361    7.66871257826271    6.26913131775751
H         9.48569791307382    7.67792455524840    5.20732454586584
H         9.54031689665893    6.71816238298025    6.70708742318286
H         9.78045777052000    8.46613024006544    6.77637700516960
C         7.12416524720660    9.35645991913164    5.47130996207034
H         7.51828545801382    9.20109571515262    4.46780836394152
H         7.59697485194499   10.22952636744056    5.91520129333692
H         6.05135677741834    9.53301561290329    5.41688760499297
C         8.04708481481516    7.80850629632663    9.76362220955800

