44
CSD_code = SEWFIJ | q = 0 | S = 0 | Stoichiometry = C14H17CoF3N5O4 | MND = 6
Co        0.16720057697174    2.53845277288257    2.70745704105317
F         0.71327978432202   -0.16140692528477    2.15489321397617
F        -0.93898605498824    0.59905830515408    1.03043288000709
F        -1.19404431488723    0.10089554651572    3.09846723285691
O        -0.58671648298650    3.79161864382522    0.31554424250418
O         2.90126734146375    2.17092008387960    3.21523423268853
O         1.18063613472320    1.76450665132964    5.17554688787123
O        -2.40951356646485    3.43031549789100    2.19635494416536
N         0.20490953012999    3.02634876403351    0.88648939213029
N         1.99085496182816    2.19424697388817    2.37287649491203
N         0.15704207110153    2.05205478060117    4.52718175841909
N        -1.65337835601317    2.89102795006803    3.02564873419456
N         0.61415555344361    4.44904486877557    3.23917406373411
C         1.58697083772753    4.70127053541940    4.11514698248830
C         1.90369852267289    5.98611546647131    4.52003128277362
C         1.18664854548947    7.05171623401462    3.99994205055481
C         0.17968320860729    6.78446937505946    3.08623614791799
C        -0.07595149143333    5.47124500976062    2.73273468947793
C         3.49892806659754    1.32869932184220    0.61479489019616
C         2.23281065230842    1.96817826166924    1.06363900888280
C         1.22307250168885    2.43744819445926    0.22409725157424
C         1.24791397459213    2.38442469138210   -1.26324175375447
C        -1.26189605011797    1.63542390285749    6.49862160752213
C        -1.05002302714728    2.10163033221176    5.09951253289656
C        -2.06661909438084    2.57144973316547    4.25608197810212
C        -3.50316236002123    2.67091281002500    4.63858184236791
C        -0.32899860301075    0.71056217944790    2.24136157334483
H         2.13841408171157    3.85031792776628    4.49924922744162
H         2.69980867023796    6.14022738676347    5.23046864226962
H         1.40908486762422    8.06559654147661    4.29681738731454
H        -0.40472864721074    7.57772678353842    2.64867517013770
H        -0.85248777697820    5.23500058752198    2.01368479214261
H         3.92820512250512    1.86078521690597   -0.23139833140930
H         3.30335147615195    0.30074643892774    0.31050160398637
H         4.20252216967526    1.31939096217603    1.44515543345699
H         2.18086017051451    2.78912241004920   -1.65141523487859
H         0.41044661840292    2.96104026112465   -1.64999378886716
H         1.15671905894539    1.35315383381329   -1.60048151769192
H        -1.82294720068922    2.37148586339544    7.07092290458697
H        -0.29278053696690    1.46578330405373    6.96367231727426
H        -1.82235832057887    0.70134881526943    6.49952902515539
H        -3.61593692495189    3.19423213265659    5.58579261767450
H        -3.93071347906430    1.67474397183389    4.74513583088195
H        -4.03984221154386    3.20306760138332    3.85564271766769

