93
CSD_code = SEWJEL | q = 0 | S = 0 | Stoichiometry = C35H29F15LaN5O8 | MND = 10
La        2.33803970096347    7.57949721531695    6.34956298166539
F         6.52412091461949    7.20150527002456   10.20090296394180
F         6.65640785471939    6.60607557201872    8.13875232647209
F         6.50306066845496    8.69326807400174    8.65287080411567
F         0.47896218315847    9.70548276187078    9.51387021487588
F         1.45060880355246    9.32650592072659   11.39427113795936
F         2.31972716926501   10.71811383015218   10.00933125133109
F         7.05868201957454   10.85152380501872    6.01341491089858
F         5.99671846321760   10.39361376974416    4.20403709135690
F         6.87529082829101    8.80602875331343    5.36054343437564
F         2.66978447001057   13.26812184302669    7.53235535690170
F         1.92180639031133   12.65973765723257    5.61048508010779
F         0.85663309070692   12.10859656265422    7.38888783123580
F        -0.86708661414863    4.82977796544267    4.95721358787656
F        -0.88672166058825    5.19079975110190    2.83134253812577
F        -0.85340948136823    6.85263827548617    4.20376209776795
O         2.71467306901974    9.27867432930831    4.60516737563968
O         3.93805499952851    6.09056315448438    5.53228341275054
O         4.05510209575025    6.48852852706578    8.13866926771388
O         1.74718175500817    7.61446505338010    8.73036085132445
O         4.53397168029674    8.65826931951012    6.51014789789579
O         2.26322763583332    9.91937962417309    7.29687892290984
O         1.68666889455547    6.77878019991437    4.19610118203124
O         1.79152118073003    4.56434684983026    3.85155080904010
N         1.73594701576621    9.82587561643534    3.97761403135695
N         0.35560054167792    9.03216498981430    5.61388373984404
N        -0.07753635930166    6.85042458252953    6.99613023896050
N         1.94429885193019    5.12771911653108    6.77974803189177
N         3.96123444114213    4.84052711459614    5.74532995209129
C         1.94655206260265   10.14358432612543    2.55733022164879
C         3.12334054468118    9.28867686459042    2.08027372565100
C         2.31399445465094   11.62508909095338    2.41448414359843
C         0.70150077651456    9.76520282589501    1.75142996100024
C         0.53236619801461    9.93514760467190    4.63948768689346
C        -0.43095491709729   10.92620250983486    4.38290638191892
C        -1.58662609003495   10.92341535680231    5.13509736552753
C        -1.79074397070434    9.93872079149336    6.09315328812573
C        -0.77993824977802    9.00233244454747    6.30470964679795
C        -0.91344641374400    7.86113110847360    7.23449964171231
C        -1.84520016798856    7.81154472425670    8.27024509760829
C        -1.90627196077549    6.66824726421968    9.04907323302262
C        -1.06050817159687    5.60689240111931    8.77228676701896
C        -0.14288391543779    5.74300404243867    7.73223470635157
C         0.83880430245160    4.69515500946031    7.37666284947857
C         0.60694882428400    3.34042711217056    7.61105377327036
C         1.56941296892442    2.43115972535709    7.19255511610703
C         2.71925911132711    2.87440445103440    6.57436253195934
C         2.88888182791167    4.25734505948361    6.37697825374094
C         5.15924018383171    4.11661250098052    5.28188285345441
C         4.75626981429520    3.04899154407721    4.24813722733403
C         5.88385828156450    3.53642431125750    6.50206078860947
C         6.07804991550037    5.14311890153761    4.61992105755240
C         6.05911468999181    7.46791609612764    8.96652770049378
C         4.51990070135253    7.36093856467101    8.88168228919589
C         3.81218805495706    8.30269268025561    9.64208705788682
C         2.44114625039032    8.38156938696256    9.42610375202674
C         1.67931788855482    9.54523773656670   10.08526341864827
C         6.22310483504915    9.96128294285322    5.46255203926603
C         4.89105245362046    9.81013618913227    6.23280527659524
C         4.19830476107167   11.00563285865643    6.46596364494155
C         2.88945046982901   10.93196782519315    6.93668801688128
C         2.08743248645848   12.25147316466275    6.89292923222088
C         1.23413287633658    5.63498066678164    4.00812841637000
C        -0.35585000594862    5.61522469417459    3.98681568467561
H         4.04196347274788    9.58019565680949    2.58078246546012
H         2.93248056259422    8.24130071558361    2.30354323569837
H         3.25331668743401    9.41211812634318    1.00886713594005
H         2.53040338416889   11.84066524577558    1.37161224158909
H         1.51927126837687   12.28512317234019    2.74657323543881
H         3.20121791093843   11.83964775313418    3.00432936417285
H        -0.13337975921845   10.43758103931242    1.91745635166198
H         0.94545697227572    9.79001213894108    0.69241531532518
H         0.39105330425460    8.75477293534517    2.00719258538606
H        -0.25553856991754   11.70766446000094    3.66517401276772
H        -2.33339285440449   11.68625186466348    4.97544738751670
H        -2.71085401488063    9.90292465358948    6.65079578120914
H        -2.47920579916959    8.65523375981303    8.48646353366471
H        -2.60441516905483    6.60693231956951    9.87056592006127
H        -1.08655479067065    4.71329543939708    9.37477349944940
H        -0.30915552756819    3.00362941439513    8.06579960594031
H         1.41288513287334    1.37300062899443    7.33823054372850
H         3.43947614185234    2.15887971723896    6.22651540714882
H         4.75272315198569    2.04641231804054    4.66666835075451
H         3.77231627766945    3.27237149437898    3.84174887702567
H         5.46745824287962    3.05501877897566    3.42657459395416
H         5.27052987220917    2.84119813357702    7.06620039037296
H         6.77833677004753    3.01748271131686    6.16672309737150
H         6.18248835730780    4.34454922349983    7.16410231675718
H         6.33107947232016    5.94213169705879    5.31249441410917
H         6.99370061953082    4.65288926322763    4.30050564554140
H         5.58907791247584    5.58663738800188    3.75655772264651
H         4.32537147667788    9.02010635318073   10.25778387651829
H         4.62921802049737   11.95218531601436    6.18856092287669

