72
CSD_code = SEWKOW | q = 0 | S = 0 | Stoichiometry = C23H38B2N7RhS | MND = 6
Rh        7.35264151853198    6.79929938356546    2.71323774252210
S         7.52601910788374    2.95131565982517    5.30341166292375
N         5.74958763152138    5.36571115798964   -0.15730650965419
N         3.77648135537535    5.37397066373796    0.90421296133969
N         3.79952172039988    5.76644115662847   -1.41265661673676
N         6.57317124198867    3.59953071190838    1.45591406542629
N         4.63842374603383    3.66393184365566    2.57941161819183
N         5.83096681337864    1.63745914629768    2.52509825017413
N         7.78779930688315    5.28613543322430    3.85338856699161
B         6.21923061587718    5.08822623796968    1.29434855808081
H         7.34312163664185    5.74235877556505    1.42424970128021
B         4.72415935640360    5.15156814840928    2.13783203593309
H         4.34037603076750    5.84876309756600    3.03136080097982
C         4.42832749490604    5.48299927925970   -0.23634358403604
C         6.58704444447465    5.43822991963024   -1.32637388890336
H         6.75872313889975    4.43226455900780   -1.73886410356009
H         7.55615516411485    5.84413958861907   -1.02080337210212
C         5.94380499472482    6.31909015824030   -2.39181092993754
H         5.88028304175060    7.34498327518564   -2.02442770446783
H         6.53016970977214    6.30912612652882   -3.31029610330784
C         4.53963955662688    5.79000656195440   -2.65293179600656
H         4.00843900697537    6.44035711224236   -3.35540666252851
H         4.59263100036691    4.78459892125051   -3.09809381219852
C         2.35594424095027    5.78647528288480   -1.46789072240519
H         1.95416288456866    4.77411799701840   -1.62520764375673
H         2.05499804412101    6.40426396325728   -2.31975914906482
C         1.81632856505953    6.36658259535958   -0.16669054052680
H         0.72666930630762    6.37132577990664   -0.17491419800195
H         2.17297071431140    7.39223567650285   -0.05758303600236
C         2.34735385610600    5.51869130122626    0.98453911750306
H         2.11532815263525    5.98126659485961    1.94745230261202
H         1.86837276547386    4.52859924138939    0.96437118986243
C         5.69881548371067    2.95707707615314    2.22668220312130
C         7.83800660745023    3.00569963013065    1.09543037852194
H         8.59868492040228    3.28204004586574    1.84001819575243
H         8.15038700025180    3.41985644638923    0.13259429303733
C         7.71677634981422    1.48943088809568    1.01526724080709
H         7.05963256367839    1.21675493418329    0.18599406192153
H         8.69368195086991    1.03396296410249    0.85366126290264
C         7.11190563597348    0.99312029107768    2.31959386943136
H         6.94080076680774   -0.08748649993797    2.28176785374028
H         7.78792649539859    1.20575097203388    3.15874535862298
C         4.98456839150934    1.06169638921850    3.55008026167082
H         5.39317282531923    1.27382891802544    4.54718637154372
H         4.97595261561982   -0.02366846500100    3.40640463171131
C         3.58101733537708    1.63465352293937    3.42223267977083
H         2.93745940287555    1.23497136980561    4.20580350774364
H         3.16504544429367    1.35913069199612    2.45037462452713
C         3.67928487107894    3.15181676577340    3.52551029931263
H         2.71454580616578    3.62185298758237    3.31909459783615
H         3.97922631804225    3.43637629071979    4.54339239212526
C         7.08143956038569    8.11988413083919    4.36172914751914
H         6.71935206731709    7.52575994598056    5.20077194684417
C         8.43991538044457    8.03311066188770    4.05370125478220
H         9.06244747819461    7.41067168495472    4.69715195588469
C         9.22080062614813    9.09762185120948    3.31475720139238
H        10.20000112637833    8.68251655989509    3.06482440138782
H         9.39066997188589    9.95290498124473    3.97842266231659
C         8.52640589906336    9.55548051631899    2.01983264086496
H         7.90158574475820   10.42962490698612    2.20898224891008
H         9.28788153024459    9.85610563027207    1.29659746987135
C         7.67172208181692    8.45683781258231    1.41631585395973
H         8.02421082578213    8.10761520402060    0.44402317744543
C         6.31137771018844    8.31547336652088    1.68935615881714
H         5.68205213678352    7.87898588426516    0.91511514027881
C         5.53405107589805    9.17360587893384    2.66216834762306
H         4.56581780721826    8.69266451891995    2.81603796251013
H         5.34574219922413   10.15916492507905    2.21903159565438
C         6.23306886597350    9.32823037968119    4.02540091652093
H         6.85996827113426   10.22142625794216    4.03648406328281
H         5.47293503861188    9.45870786543316    4.79807629583052
C         7.63051765406290    4.29147646720912    4.45661727356748

