153
CSD_code = SEWKIP | q = 0 | S = 0 | Stoichiometry = C61H84NO6V | MND = 4
V        -0.48202861228504    4.68551731228640    3.15550035451636
N        -0.62754062017835    4.42427800102469    1.55920516643204
C        -0.44763616351486    4.09997180757074    0.27932241793669
C        -1.44468532071343    4.26389198346501   -0.70205006342561
H        -2.39902760619801    4.68392042187558   -0.41575525917975
C        -1.21108798538389    3.90104316954540   -2.01075979825695
H        -1.99246899921891    4.03812799287913   -2.74580555075563
C         0.00630882358539    3.35785129894824   -2.40783608276233
C         0.99692082703538    3.19368160213046   -1.44415200740521
H         1.95223281679993    2.77615731400527   -1.73195261192193
C         0.78753993779844    3.55427854451596   -0.13211197494136
H         1.56327882827994    3.43087246143971    0.61501415147557
C         0.24433854822021    2.98302474463561   -3.83979983365752
H        -0.62939799623302    2.48814647112836   -4.25991375048469
H         1.10114254648638    2.31977062514174   -3.93015496191428
H         0.44051851941170    3.87509602768237   -4.43612833485373
O        -1.56665789463469    5.95695246550473    3.50961016540827
C        -2.61417327055345    6.63455195266691    2.90449954494812
C        -3.67476121555677    5.61806657384274    2.44231643579286
H        -3.18119711218213    4.84910484335194    1.84793880965781
H        -4.44689471612140    6.10492113831754    1.85144513235381
H        -4.13701051118578    5.15052661755739    3.31093828995748
C        -3.25985832278257    7.60243587412120    3.91647225612949
H        -3.51576593719761    7.06277548151879    4.82673584304689
H        -4.16451680630494    8.03331390638122    3.49524798339081
H        -2.57435749173453    8.40747004944827    4.17118688717819
C        -2.08592180340438    7.42103003814705    1.69151482135531
H        -1.39154618920849    8.19140884878502    2.02257530470074
H        -2.90391071200818    7.89291686475756    1.15291332682914
H        -1.55574557822512    6.73584828426246    1.02973855126053
O        -1.03304701450905    3.28844424949763    3.82771932054395
C        -1.64621550393582    2.05382237732663    3.86614790025871
C        -1.94759069557867    1.59741533595593    2.42711236811703
H        -2.64203379363629    2.29287333209487    1.95837785974858
H        -2.37965103410914    0.59983526057326    2.42812926587403
H        -1.02433284986787    1.59356366468002    1.84754469731307
C        -2.96182989595597    2.18128061914691    4.65803253689635
H        -2.75229864407055    2.43608874951932    5.69585094395398
H        -3.51658502364629    1.24713149029122    4.62860266082850
H        -3.56911699474360    2.97139698525650    4.21943841047155
C        -0.73514634211541    1.01627176859953    4.55036663053605
H         0.12957645788707    0.80410898524470    3.92606412809899
H        -1.28325863236747    0.09232986914362    4.71709384344027
H        -0.38527148477949    1.39492967995960    5.50840315984965
O         1.07877961969680    5.21799685952023    3.25964389119753
O         1.53739139402126    7.68520060290849    4.97576364689615
O         1.52327683943492    6.68159360853513    7.53376140540152
H         1.39268580343272    7.04916761373668    6.63876347279138
O         1.21844267537662    4.11454202085418    5.80662843072719
C         2.35054040946432    5.13076513228107    2.95356760620643
C         3.04995587467324    3.91741764317788    3.11322038245020
C         4.38355200673407    3.83959244952582    2.76000893771159
H         4.88464352146135    2.89435631938778    2.90733334999710
C         5.08475459637565    4.92085320026473    2.23734795061308
C         4.38252689391095    6.10390901219107    2.06725129553061
H         4.87151900274391    6.97528035459777    1.66415522852962
C         3.04453150413970    6.22343969000305    2.40595519907878
C         6.55809595283403    4.76655603217120    1.89446769992264
C         6.71768159140286    3.67418533037047    0.82801981690793
H         7.76624293969151    3.55843529854567    0.56060297870221
H         6.15922026223304    3.94055958439662   -0.06681437720502
H         6.34931495102600    2.71705324246914    1.18601534497262
C         7.32325953909508    4.37108018938113    3.16529128415783
H         7.19294065350557    5.13435968600142    3.92972741039694
H         8.38569742923336    4.27047273873051    2.95148643211898
H         6.96340140833717    3.42751390138745    3.56577955402945
C         7.17372291380090    6.05882608754624    1.35207978989101
H         7.10004373750527    6.85968439827127    2.08359955712078
H         6.68345799970408    6.36809830813032    0.43200191853281
H         8.22759997554456    5.89681550827369    1.13352374649619
C         2.34618827889523    7.55532084821068    2.23795366482626
H         2.48781462372584    7.92541431053567    1.21966830976649
H         1.27788043933893    7.41062201939698    2.41664552222189
C         2.61765398313357    8.46684750778911    4.57290094794293
C         2.97357616830452    8.50463293523332    3.22418393036980
C         4.01818658547328    9.32696954083780    2.83490170766692
H         4.26910485252174    9.36148758167865    1.78517160926928
C         4.74272354502837   10.08860170906792    3.74531978690416
C         4.40175647792788    9.98205553589360    5.08466165631326
H         4.95008473051715   10.53033636863853    5.83337052709803
C         3.34625016834449    9.18780732987254    5.51448034643844
C         5.88111855948727   10.96620903917418    3.24762720937893
C         6.56224165205210   11.74643312985455    4.37526437451707
H         5.85492770225092   12.39820155854967    4.88297204398639
H         7.35320247969747   12.36774240414455    3.95987188144846
H         7.01279127166690   11.07279585326169    5.10043041389463
C         5.33096835389450   11.97769174368970    2.23267967053402
H         4.88472966765310   11.47874808582257    1.37719082369139
H         6.13161875533585   12.62023452296478    1.87235830314629
H         4.57062400396596   12.60129694000173    2.69838171258195
C         6.93664095179519   10.07576759605353    2.57675680753095
H         7.29911783646962    9.32942655660650    3.28094328867537
H         7.78075720115300   10.67707928377871    2.24565207618686
H         6.52804781225681    9.55993060298108    1.71243888506104
C         3.06091266417442    9.05468221413000    6.98844261924576
H         1.98664570478441    9.06188066898435    7.18233930489247
H         3.50408919298840    9.90079997055454    7.51792416499146
C         2.86986753705496    6.65212036802075    7.76567019935635
C         3.66580025166280    7.77301334944423    7.51885195850368
C         5.02646978422213    7.70233891301063    7.75670378943332
H         5.62134015483682    8.57750150480558    7.54112492943101
C         5.63079781002285    6.55620988677183    8.26031247451348
C         4.81325489514353    5.46947109238643    8.52981660051016
H         5.23001908451255    4.55858489880004    8.92555264418128
C         3.44780748218084    5.49784831032926    8.28935686102657
C         7.13558648562682    6.53973853579258    8.48274793926539
C         7.83454634698846    6.76632753885725    7.13487378679077
H         8.91533388892742    6.75286397799824    7.26220796243660
H         7.55240694126104    7.72096861842327    6.69915879904804
H         7.55749388739922    5.97991318343221    6.43568799351256
C         7.63206822613769    5.21100487732472    9.05846013648965
H         8.71088631973418    5.25473954476535    9.19626084321110
H         7.41266298078891    4.38845946835351    8.38225162903722
H         7.17770559017066    5.01126606079929   10.02626518043894
C         7.51746973015346    7.65727419534733    9.46339564980017
H         6.99913501893347    7.51863296012939   10.40992624022481
H         7.25371277797249    8.63556356623143    9.07166008131950
H         8.58940843404093    7.64365326338718    9.65075065477211
C         2.60561002711721    4.26577012711838    8.53922533915697
H         1.56325236770651    4.55953931402617    8.60484131441023
H         2.89691871317141    3.81797689523236    9.49253853067669
C         2.29406427774228    3.32987321427001    6.15552012279027
C         2.88220424753367    3.28011243914921    7.42662466840796
C         3.90241999207353    2.36347611330376    7.65030487348319
H         4.31907989066560    2.31950724885896    8.64584817171626
C         4.40982648694764    1.52795167947654    6.66630636054558
C         3.87734218570506    1.66644918648702    5.39415420690237
H         4.25241100652443    1.07352666117959    4.57560689874412
C         2.83904623258047    2.54429022448541    5.12957222388316
C         5.52658609946718    0.55212215601515    7.00322377543915
C         6.74349862143560    1.33995089113251    7.50892538858119
H         7.05351276683983    2.06961154330067    6.76329599246764
H         7.57594894106548    0.66600206730695    7.70145199166896
H         6.51615474588247    1.86810909133477    8.43067314188028
C         5.96579447924681   -0.27819315558634    5.79411645098504
H         5.13676319949812   -0.85914134006028    5.39672649869498
H         6.74907624495005   -0.97161969200312    6.09433297386096
H         6.36536898315131    0.35841756817435    5.00810903937290
C         5.04156288544149   -0.41213291750917    8.09438251982859
H         4.75555433527715    0.12285729200311    8.99566255025067
H         5.82995534882439   -1.11673481199259    8.35163609920687
H         4.17786196458041   -0.97269678198048    7.74273440396432
C         2.36322439055568    2.71262383746595    3.70958491440602
H         2.61937452503703    1.82119931431155    3.12965936432727
H         1.28192310193041    2.86844944946227    3.67771041067383
C         0.27739665936491    8.30842333168413    4.79731911564776
H         0.04999635381181    8.98375762015383    5.63294518332248
H        -0.45728483080701    7.50281190255578    4.75284354466537
H         0.24755405514553    8.88879311654261    3.87087177441715
C         0.08848637339733    4.12573020532530    6.66211815862805
H         0.05425698535281    3.22952291659792    7.29067836340125
H        -0.79064583135097    4.14736212549140    6.01078742952005
H         0.07820885646176    5.02059129698901    7.28937937067964

