70
CSD_code = SEWKIQ | q = 0 | S = 0 | Stoichiometry = C22H38B2IN6Rh | MND = 6
I        15.74628217964706    7.23028119881812    2.18077421876518
Rh       14.84346664710144    7.79974353673084    4.58762527897617
N        18.91824163699066    7.32071546278371    4.39153710811812
N        17.99512660629103    9.28594699913826    3.84476305894708
N        19.61016845586915    8.36646686037257    2.39785796221129
N        18.46892701177804    7.92794621271255    6.84063178069363
N        17.36092519102126    9.78423690113175    6.23940996181398
N        18.52575335497294    9.78327394578718    8.27867107119588
B        17.82851636715020    7.41280078796871    5.50348625716650
H        17.38133506146249    6.31848193285810    5.70051687305649
B        17.08854054042544    8.87874536776195    5.01938195532944
H        15.86006829902417    9.12676655113362    4.62970493484630
C        18.83221853990472    8.30667012275921    3.51370514218742
C        19.66229288168366    6.12042503712569    4.10076923872621
H        18.99065705888828    5.37459168241735    3.65406879673594
H        20.03225197508035    5.70958679119594    5.04404016805370
C        20.81644142322256    6.41157764436365    3.15023503992251
H        21.29894450695582    5.48603128660488    2.83689762727170
H        21.55526884809768    7.04208456674628    3.64983294815988
C        20.25743453374436    7.15295149110023    1.94499493413325
H        21.05940821720784    7.43735440600434    1.25657563090166
H        19.54452143173044    6.51625021043408    1.40295125218066
C        19.25694518861775    9.32336345826235    1.36915802199658
H        18.40122925526896    8.96211361261578    0.78228838757414
H        20.11756012413558    9.43184126459950    0.70241485361305
C        18.91618866448415   10.64818008799002    2.03430548353145
H        19.78309183501522   11.00117806730168    2.59780279820249
H        18.65599534141333   11.39507262324313    1.28482973708011
C        17.74528635320976   10.41170527080573    2.97790365166362
H        17.56887730063124   11.29407822355971    3.60157218042015
H        16.83278132423222   10.22748032071695    2.39300015399971
C        18.12908357671754    9.16827698249514    7.13301228005702
C        19.22507563516605    7.14094688197576    7.77831303852972
H        19.74566456535793    6.36025272382991    7.22189481056764
H        18.55542699469229    6.64883336399327    8.49901908756075
C        20.21398029389833    8.03725770924905    8.51664931429369
H        20.90280830967548    8.47775471473430    7.79316124999886
H        20.78851464993993    7.47122709886730    9.24955304314934
C        19.42786203166176    9.14096476743075    9.21015455027962
H        18.85852618892375    8.72328472972013   10.05428684274795
H        20.10834345917750    9.90272670976298    9.60868911734199
C        18.01934884007923   11.08327171719442    8.66483471262351
H        18.77229709934727   11.85584666501290    8.44747727417101
H        17.84815652564999   11.07757597271230    9.74761454914783
C        16.72465477603140   11.39717090087204    7.92793515866513
H        15.93084156180341   10.73443619496389    8.27879180585987
H        16.42791628413556   12.42905821197565    8.11439209207640
C        16.95837709860677   11.15062336558107    6.44053911435430
H        16.04391283115583   11.32312804768962    5.86660349938780
H        17.72722541940547   11.84663503849521    6.07112237106944
C        13.60545306786083    8.87258263565927    5.91236924554404
H        13.89903482621954    9.92454715912164    5.96609610116852
C        14.36524391663967    7.95577241548110    6.64990457398261
H        15.23624412999783    8.33975065140320    7.17775548751608
C        13.78490212656379    6.69212358350515    7.24681138391697
H        14.30168988794585    6.46879435076838    8.18311144326096
H        12.73309611814331    6.85616407162172    7.49085207262444
C        13.93865567882725    5.49304488483673    6.29441855146063
H        13.13395814281386    4.76630888705817    6.45958702684531
H        14.88277817665014    4.98810044461160    6.51235340412868
C        13.95620829343957    5.90019613924647    4.83870872105255
H        14.46139421443615    5.17399664562004    4.19933760368093
C        13.02000256876537    6.75003472790677    4.24485278254334
H        12.85991146190263    6.64936970217542    3.17123734329980
C        11.82692667953715    7.31374217591366    4.99058362496202
H        11.52674307215389    6.61284887520404    5.77150879170633
H        10.98535522589152    7.40590660680521    4.30055581986684
C        12.13679864660357    8.69535925869811    5.59108649210673
H        11.54145009349936    8.86364747936905    6.49704868954658
H        11.85189137548096    9.46789558337573    4.87137042140757

