77
CSD_code = SEWMUD | q = 0 | S = 0 | Stoichiometry = C30H38Cl2O4P2Pt | MND = 4
Pt        2.46703651352732   11.90680575433960    2.92979169348553
P         3.45256933016029   11.38890580239974    0.96681982930371
P         4.49008172461090   11.87661449665390    3.92826201445514
O         6.25973974052722   10.21861060704203   -0.46099222334799
O         6.95678942906648   12.31923666092571   -0.06475099521624
O         7.52907570227961   12.01549705024971    3.98862883373298
O         7.86080634109335   10.79751222272428    2.13296339249889
C         5.26129530742322   11.46532312157254    1.29818138335333
C         5.69043581055967   11.58155977448261    2.56558952799162
C         6.20514260063394   11.24047413465039    0.17165416908751
C         7.91494065879233   12.19100551432465   -1.10883939729293
H         8.59665103083814   11.36686388539178   -0.89212994076089
H         8.45053182067012   13.13592044264783   -1.14590551913447
H         7.41669754249969   11.99418198670050   -2.06096259081833
C         7.11047753930227   11.51531534953266    2.97593740183547
C         9.23474970429111   10.66104897643658    2.47660938854778
H         9.75925906867838   11.60343725307518    2.30670288622905
H         9.63255558253398    9.87933965666024    1.83439285941349
H         9.33242202513935   10.38655435705688    3.52878491449672
C         3.23885015674815    9.62558305550714    0.45932749272181
H         4.01268684793823    9.34563206467053   -0.26432122269462
C         1.84057697768261    9.45658997120950   -0.13584504280262
H         1.10601137437860    9.87523518980811    0.55853982931007
H         1.76023824949922   10.00201529492771   -1.07846937705827
C         1.53646407666472    7.98045807609941   -0.37828976771210
H         2.23802220872914    7.57996053612567   -1.11500589032442
H         0.52858470639893    7.88173197787121   -0.78478784648895
C         1.65715916333551    7.18786776951561    0.91816504987457
H         1.43095730253720    6.13565122823180    0.73610262705451
H         0.93510895655763    7.56886858409783    1.64256574664929
C         3.06535787547838    7.32887285462376    1.48521064218479
H         3.15366040442149    6.76996925598356    2.41877755601669
H         3.78808208535703    6.91791049390221    0.77586305513143
C         3.38615079105518    8.79756483838224    1.73804167658357
H         4.40406220278207    8.89496096619495    2.12580717145518
H         2.69357525197200    9.19537721535461    2.49588309338033
C         3.11322394885955   12.46694266652747   -0.48677052666986
H         2.02929355979659   12.34672316662545   -0.63025023346768
C         3.37301696933373   13.91317485471369   -0.05949733416497
H         2.80691489818719   14.11610291253242    0.85649503655587
H         4.43821201089993   14.05058629498603    0.15461299363442
C         2.93212835110402   14.87287192602808   -1.16018911172263
H         1.85230009990782   14.78722274620971   -1.29557729607647
H         3.15331503586735   15.90039303621970   -0.86587626435908
C         3.63629300685102   14.54354455886034   -2.47371865383104
H         3.29280494922172   15.22025105896351   -3.25813241409352
H         4.71302794709416   14.68879730308320   -2.35455596559368
C         3.36275455998757   13.09789353165840   -2.87983775889194
H         3.87330930313635   12.86986644400586   -3.81789794859680
H         2.29108987457707   12.96151809569571   -3.03899666059373
C         3.84011606006285   12.14210711937720   -1.78737930363919
H         3.66382058470807   11.10711394689718   -2.08650161384276
H         4.91399526285900   12.27623273360388   -1.65519679542295
C         4.95355037282069   10.69322486714538    5.20715025814260
C         5.66379978382245    9.53018557861372    4.92603031156641
H         6.00653269586020    9.33069416991373    3.91919183460662
C         5.93436009443270    8.62844408285158    5.93894310133913
H         6.49450903458884    7.73046554048347    5.72207282557893
C         5.48374557645405    8.87109619598495    7.22654292100771
H         5.69809458976963    8.16313090293415    8.01332228177256
C         4.74858050772561   10.01337448106264    7.50222499631774
H         4.38230568641990   10.19303133095724    8.50188144202009
C         4.47788513657187   10.92263426286089    6.49720631785674
H         3.88329529673737   11.80451332193006    6.69141602560858
C         4.92630290476004   13.52296179210565    4.54621003221319
C         4.29030696390956   14.58889066375566    3.91554887383313
H         3.58375121986864   14.38358713364888    3.11543737227875
C         4.52918807338090   15.88432455243070    4.33132483019998
H         4.02998546155661   16.70914057858681    3.84515848404777
C         5.39953571814445   16.11804478137419    5.38441235338462
H         5.58373049175753   17.12906936872535    5.71677068124517
C         6.02450736813659   15.05685697896129    6.01967414242209
H         6.69475537283227   15.24248997338060    6.84591751749381
C         5.79329091621752   13.75685135634674    5.60706432411065
H         6.28655385753615   12.93205455894329    6.09757775868027
Cl        1.63620176966275   12.35682415727928    5.02779863134322
Cl        0.42810858005394   12.10821055442263    1.88789011374255

