89
CSD_code = SEWMIR | q = 0 | S = 0 | Stoichiometry = C30H50Cl2O4P2Pt | MND = 4
Pt       11.69234747459149   15.50588870092723    9.02793338474200
P         9.86310222198374   15.23004664995687   10.33295763652195
P        11.14740533348004   13.64660132777480    7.85648768046428
Cl       13.50931812531689   15.78655455441925    7.64461821398358
Cl       12.23596390719816   17.36300972061799   10.27284945270424
O         6.83535099361623   13.86621891305034   10.54179663672256
O         7.93053122983486   11.91127034872316   10.66054909495588
O         9.43361164953085   10.79343154572548    7.89393117209091
O         7.61859402699205   12.10892214268742    7.78576349413380
C         9.06158017866923   13.70122061776522    9.68675906715426
C         9.57310347223845   13.06676365665937    8.61886912882176
C         7.81734682937127   13.20459310612118   10.33008637734199
C         6.79018754136459   11.32351887595823   11.27574605411798
H         6.60121169957810   11.79026578954726   12.24493343849601
H         7.02303111734322   10.26917309699776   11.39897691075418
H         5.90987100806857   11.45694839077337   10.64429343361735
C         8.90298399749021   11.85818695955537    8.07196541900730
C         6.87084107357555   11.01483340093900    7.26836579415480
H         7.25964188635746   10.71911219444462    6.29151119251818
H         5.84545209926486   11.36402654646849    7.18084575068101
H         6.93524363669699   10.16077055108132    7.94501653904374
C         8.49075965906591   16.47104731959462   10.30387657128873
H         7.57511102956051   16.00095874592355   10.67850881452990
C         8.30430206057234   16.86959272860904    8.83949394429527
H         9.26578369230834   17.22865973486460    8.45285487021730
H         8.00385546297747   15.99177768055759    8.26084993273370
C         7.25814715018404   17.96919530549215    8.69550310648627
H         7.16336875347367   18.24976620723166    7.64468142253650
H         6.28948391395481   17.59234611484606    9.03268755404855
C         7.65239004496361   19.18200159642139    9.53051598296996
H         6.90057501920688   19.96704182435026    9.42939830080473
H         8.60440544423427   19.57661757243055    9.17110056597500
C         7.79441873991964   18.77939741486676   10.99358250976436
H         8.07696862829068   19.64582834288835   11.59397576528361
H         6.83284329883983   18.41274866131713   11.36294066721008
C         8.85145122021725   17.68898980060012   11.15410523761635
H         8.91731814793342   17.41141767777880   12.20804077942137
H         9.82654918565390   18.07004540524771   10.84039526660696
C        10.24513513986073   14.91364319640006   12.10840784044152
H        10.58558864342073   15.89717279781487   12.46212939421451
C         9.09225875859550   14.42431411466901   12.97891082468724
H         8.23024029545648   15.08979509477989   12.90160280115476
H         8.78420237434342   13.42945960628237   12.65027964273123
C         9.56384454810207   14.33693409905182   14.42995726521484
H         8.74537397152286   13.98903083985124   15.06373153457254
H         9.85636476755046   15.33058547202496   14.77586774925312
C        10.75365371227762   13.38769281455010   14.54646354011169
H        10.44346428273610   12.38187019123285   14.25259005350631
H        11.09039484084996   13.34281460971782   15.58355450816268
C        11.89938500460794   13.84645550624072   13.64763203103488
H        12.25664351217561   14.82247316637281   13.98156282312000
H        12.73108775250772   13.14315140168154   13.71643929323742
C        11.42896986529797   13.95225723392516   12.20045929389711
H        11.12996388059648   12.96511121826223   11.83740716978251
H        12.24246360002862   14.32373253705039   11.56544197283941
C        12.21616556000562   12.13787395033913    7.90659749117541
H        11.63193962707583   11.27580169622371    7.56684950004455
C        12.62387005108175   11.93831800462025    9.36633240589447
H        13.10545689076939   12.85690838370187    9.72150687870177
H        11.73004223124774   11.75891070031154    9.97031140676216
C        13.59136256748942   10.76902679653242    9.51150926855326
H        13.88324096954766   10.66179387465690   10.55804398834093
H        13.09103009067574    9.84730077736642    9.20504223560960
C        14.82301929452056   10.99437248975755    8.64201923810587
H        15.51264204092895   10.15427558703647    8.74440237856147
H        15.33925314776042   11.89809309597130    8.97097302955158
C        14.40693017407074   11.15430241477203    7.18440700723704
H        13.91919035796428   10.23662847098394    6.84467205653039
H        15.28705183208588   11.31820301055319    6.56029343880167
C        13.44755359441039   12.33100745810542    7.02205745115508
H        13.15405330244017   12.40937138023157    5.97333199585874
H        13.94993083379799   13.25992604752213    7.30303157451718
C        10.78222831324137   13.96544876997801    6.07790540554490
H        11.77367365991232   14.20088367011357    5.66542566907188
C         9.92146949010328   15.22290893737256    5.96722990549782
H         8.93144457485203   15.02800004324229    6.38931872556753
H        10.39104651219956   16.02992158861580    6.54265243948009
C         9.78477746433106   15.63258347701855    4.50437706178688
H         9.15086754425081   16.51768335951241    4.42519821281537
H        10.77009048639306   15.88856664568730    4.10974614850456
C         9.18835278390198   14.48964524984832    3.68644307305450
H         9.12153129569774   14.77971253370915    2.63651593770352
H         8.17563483427064   14.28122532537148    4.04015601622713
C        10.03923528843829   13.22965420919901    3.82135244528926
H        11.03617849499295   13.41933705505536    3.41806697342443
H         9.59426805048937   12.41555354535771    3.24536289644412
C        10.15665380836596   12.81966207880028    5.28898805185460
H        10.75137940054464   11.90850622991083    5.37839033755623
H         9.15684952831373   12.61201001939603    5.67628445300736

