69
CSD_code = SEWNAK | q = 0 | S = 0 | Stoichiometry = C26H34Cl2O4P2Pd | MND = 4
Pd       -0.40922826952832    5.19722704368992   12.36444694928579
P        -0.76185923775777    7.00419147351415   11.11483934369405
P        -1.37590923009731    6.15412957536027   14.10076740466805
Cl       -0.27678741067631    3.77896515716616   14.19926860527597
Cl        0.63187706543788    3.81350763967735   10.88232748593227
O        -2.30865049759125   10.00734804248855   10.88309787678229
O        -1.22234496207324   10.51389713215930   12.77755252751775
O        -3.61580937988969    9.26383774345970   13.85987283796105
O        -2.25060602225153    8.96152803197051   15.61798672199278
C        -1.45677746416598    8.25642523652334   12.28859811619886
C        -1.79281630063057    7.87508169541550   13.53130741775827
C        -1.72398676675598    9.66034075949822   11.87503712907476
C        -2.52750131654248    8.75997405325402   14.46466023102784
C        -1.45102870013955   11.89483715333882   12.52518047056386
H        -0.91213312073637   12.20882620250967   11.62862745552774
H        -1.08199741871004   12.42646367796848   13.39827558280066
H        -2.51684739064282   12.07937064799075   12.37868345431199
C        -4.45531835603251   10.07840549627394   14.66783843755915
H        -4.90501774438114    9.48130726469173   15.46396452771621
H        -5.22374524870632   10.46992714939165   14.00585765299223
H        -3.87782838516879   10.88888096671851   15.11802605865485
C         0.89426097569585    7.72657040876810   10.59776450212330
C         1.77172145939158    7.49777225186298   11.83836849570162
H         2.78918565842989    7.83398580292464   11.64502203655508
H         1.81154053061629    6.42250240551735   12.09278164996538
H         1.38418087778189    8.05473488772924   12.69534776038552
C         0.86874311812270    9.20999019829657   10.23912571634943
H         1.84455771202769    9.49879307728217    9.84959588348078
H         0.66819015785926    9.82043141204730   11.11713215330599
H         0.12215020478938    9.42991930238727    9.48096804366685
C         1.43472686553593    6.88398887376135    9.44323243693080
H         0.90480842004475    7.08823197431741    8.51610706003993
H         1.34605048166030    5.82137648220390    9.68036604352883
H         2.48814347108242    7.10939662407787    9.28525569957803
C        -2.08084999076189    6.83694833893548    9.77554680019458
C        -2.01270278696770    7.84758865825179    8.63697572770871
H        -1.07430579513974    7.77438074850787    8.09386301600265
H        -2.14284302917314    8.86015945302964    9.00682274861129
H        -2.82055933276112    7.63982669233632    7.93635444258507
C        -3.42915366595905    6.92965901639407   10.49503809092932
H        -4.22128199888316    6.58098376341999    9.83448972638993
H        -3.65065087556324    7.95456523899209   10.78316035651302
H        -3.43093615273790    6.30228953446466   11.39100703695670
C        -1.89863967246621    5.41270658833857    9.24534905334187
H        -2.67216374948357    5.18491945739448    8.51379372017731
H        -1.96992156668663    4.68734358327510   10.06568475743623
H        -0.92637586291760    5.28230219865124    8.77459933264192
C        -3.04337877792630    5.48183542108490   14.32456884812439
C        -3.45856754229577    4.49952019094498   13.42727561845177
H        -2.75380042343121    4.11602554925952   12.67809920777096
C        -4.74161272165241    3.99024965121714   13.50943109921112
H        -5.06359122252476    3.22394413193488   12.82034203190618
C        -5.61089500479378    4.46278290273718   14.48036158733078
H        -6.61214802641130    4.06380942491942   14.54625826434106
C        -5.19866676076567    5.44044435688626   15.37230487571026
H        -5.87835167113600    5.80030238655606   16.13095675810273
C        -3.91665695798878    5.95562067658563   15.29839006389196
H        -3.58645219873547    6.71166717859779   15.99729485620183
C        -0.66102268565735    6.47543556232148   15.72578239741934
C        -0.99714153065780    5.68672538544471   16.82013375595065
H        -1.72795838956586    4.89755808736894   16.70955371158909
C        -0.37713895749400    5.90887241785635   18.03569553782294
H        -0.63873149116724    5.30103346906749   18.88933279169092
C         0.58150727818549    6.90168430744044   18.15783312215638
H         1.06376360145306    7.07016003807033   19.10942848292409
C         0.93016871138452    7.67368369272997   17.06099636013116
H         1.68427110971038    8.44094290844896   17.15668861937626
C         0.31518513795918    7.45972875226828   15.84280077324134
H         0.57805922698582    8.05813439201020   14.97980265823390

