65
CSD_code = SEWNOY | q = 0 | S = 0 | Stoichiometry = C25H37IrNP | MND = 6
Ir       -0.77243707380028    2.18269056298860    7.90283279596172
P         0.43000917411866    4.22084901168994    7.80298681388917
N         1.74919918375761    1.81820682253566    9.42439274482167
C         3.97505210465738    2.93535253434611    9.32121827809948
H         4.23934858756905    2.66974674997377   10.34781190845382
H         4.50872711385970    2.25114283493802    8.65504075887122
C         2.48422328220573    2.88893012633685    9.10593542170288
C         2.01225639558607    4.10817334876049    8.65065637243568
C         3.12739621395266    5.03841931950979    8.62360894728129
C         3.19096533764082    6.40550745629087    8.37664877120716
H         2.30202624814157    6.97514439503582    8.14948417026808
C         4.41265087067633    7.05250430476179    8.45798798662493
H         4.46267153065205    8.11474816434536    8.26306856298557
C         5.56905218704101    6.36614697738408    8.79041618089180
H         6.51191878324515    6.89004513324273    8.84316983294476
C         5.51263429626797    5.00839072370269    9.08107642987533
H         6.40592199058537    4.47148666315386    9.36919491522326
C         4.29992050980262    4.36438628289391    9.01176226226868
C        -1.58295891057899    0.20554454098954    8.08353841189960
H        -0.93388295161902   -0.41864188566113    8.69330230339126
C        -2.40208091239799    1.11871325119166    8.76273847850602
H        -2.34596432482904    1.13251204490628    9.85064545768640
C        -3.73238236486412    1.61297913139046    8.24365889642421
H        -4.05710321167939    2.43719256345370    8.88270681235619
H        -4.47985948708390    0.81783221041255    8.34236957461578
C        -3.67935197581097    2.10284707159960    6.78313621886067
H        -4.41846666023454    2.89646216985406    6.65466174679009
H        -3.95654960702194    1.29473470096246    6.10444664690307
C        -2.31704322916564    2.62942825230853    6.39612495488392
H        -2.29826400316668    3.69106559590168    6.17717694556381
C        -1.32296078494840    1.84009979008813    5.83919106252282
H        -0.59913615376276    2.32562818836323    5.18710061068642
C        -1.45715352426177    0.36112628958775    5.56171486698397
H        -0.47136782274637   -0.02079284421821    5.28575202850154
H        -2.11427526453640    0.20797790832720    4.69766396936454
C        -1.97939102258480   -0.43540093551094    6.77071114213404
H        -1.57192612458946   -1.44770303426384    6.72640452335403
H        -3.06557605379533   -0.52631427440186    6.72564019120240
C         1.03748183649913    4.98993831541457    6.19570120603372
H         1.62102406511521    5.87528047544881    6.46432079684705
C        -0.08132897176001    5.42569376509259    5.25670642477181
H        -0.75313863614593    6.12888226042572    5.74374421839900
H        -0.65925262914339    4.57332179053676    4.91079823820183
H         0.34291289507552    5.91996137701746    4.38279725586073
C         1.97264533451205    3.99730088787833    5.51048139032107
H         2.85746539094615    3.82613964542168    6.11979886250213
H         2.29312207612207    4.38004921115903    4.54238218375099
H         1.47667074219707    3.04048750686127    5.35627309747332
C        -0.43247750609486    5.69205732047705    8.60264412032419
H        -0.09038453617712    6.59849208565179    8.08871954857508
C        -1.94456387947363    5.56183344562816    8.44644919488758
H        -2.24348924662337    5.61008504119571    7.40274002311655
H        -2.45285408372217    6.36318236850537    8.98179754038298
H        -2.27205676766559    4.60541861056258    8.85211001106711
C        -0.07906163075646    5.80488221622383   10.08162447401617
H         0.99598406855244    5.87546831113551   10.22633660992869
H        -0.44651120044352    4.93692553777176   10.62436675602210
H        -0.54367304256935    6.69311534078261   10.50835336565389
C         0.32585276057838    1.96148696873818    9.66746398830159
H         0.20905972146875    2.84166762176554   10.32285715028224
H         0.03123871501937    1.09456045643220   10.27090126508323
C         2.38180878176399    0.56841142445506    9.75522385445130
H         1.67089138753956   -0.24185297166437    9.60142790151189
H         2.71483376337470    0.54440692022038   10.80059047715116
H         3.24535824568554    0.39084191966671    9.11401204872053

