37
CSD_code = SEWPIU | q = 0 | S = 0 | Stoichiometry = C18H10CrN2O6 | MND = 6
Cr        5.83289136824242    7.04407644223723   -0.05949447932504
O         6.33813161245702    9.92431313916143    0.65603117423328
O         2.99548509520974    7.47050952065207   -0.96821956311492
O         6.33538033062584    8.14558685365922   -2.81217082695698
O         5.75552402931562    4.38858871200147   -1.47706280026118
O         8.81729197979633    6.64824153891368   -0.07719412022069
O         4.28586756030749    5.36571722453240    6.14231754392975
N         4.89157064725272    6.52783831523780    2.95861411910898
N         5.12799503589724    5.65602323616107    3.98727133813808
C         6.08150754466173    8.81325685802393    0.50965096025377
C         4.02217958168843    7.30286572709122   -0.47844925157530
C         6.14019281270967    7.72364607823553   -1.76036740731132
C         5.73652781254452    5.35300907047830   -0.85698956923065
C         7.68508092251585    6.78851704397466    0.03810798504091
C         5.59187258635596    6.21244233134195    1.83330810996841
C         6.29254729622176    5.04339338170428    2.22722931732525
C         6.01035933105564    4.70636037663991    3.53673118134185
C         4.30940686878331    5.97161281087472    5.09828435175693
C         3.58256586152396    7.13902602188511    4.64567240178763
C         3.94616031169838    7.44763441172239    3.37660350403461
C         3.46111728428290    8.54847431957130    2.51983742301596
C         6.54291261401413    3.60348016985674    4.31046659362119
C         6.93978388904545    2.44145730088979    3.64039056152682
C         7.48344984385024    1.38320472147288    4.33955684722802
C         7.64967799043374    1.46749939999973    5.71350459017827
C         7.26411668840567    2.61637429127808    6.38418775395001
C         6.71233143556541    3.67876516343032    5.69385414041768
H         6.97757695315839    4.50725019732270    1.59672197883419
H         2.87018876055318    7.65527732247327    5.25629214982201
H         2.72389595323903    9.13339180650921    3.06226691044890
H         4.28591689382826    9.19449324552092    2.22407459540488
H         3.00889967951247    8.15189058943642    1.61218266572412
H         6.79784427091046    2.36637321112113    2.57315177784290
H         7.77765300135480    0.48771904564779    3.81286781948213
H         8.07588929871251    0.63853843690168    6.25830759178544
H         7.39144334559579    2.68654317539926    7.45377604772929
H         6.41356350857818    4.56470850849410    6.22918658414018

