37
CSD_code = SEWPAM | q = 0 | S = 0 | Stoichiometry = C18H10CrN2O6 | MND = 6
Cr        1.62642463825117   15.66829633919442    7.03763649330364
O        -0.36813297643186   15.76333479261362    4.76750001122168
O         3.91184802420326   16.20935162809076    5.13445523251948
O         1.34665433039073   18.67240191004664    6.97283160187169
O         3.39040284074049   16.06551894972461    9.44475778289386
O        -0.47611440144731   15.80118336112923    9.18775432352478
O         2.08347237018583   14.12615786341588    4.12508313750723
N         1.91766376444982   12.84009514562038    6.03014134289908
N         2.02135124801259   11.51902996168785    6.34198835635438
C         0.40365713045483   15.62718721450263    5.59790925238419
C         3.04641566935790   15.88144873407538    5.80354268150561
C         1.45817422209355   17.52817519761351    6.98002848526456
C         2.77289192643044   15.85506886915842    8.49947357232613
C         0.27962980361954   15.67524803667686    8.33224571545010
C         1.77645672834448   13.64035803749905    7.12147574715716
C         1.78924973102708   12.70278778782855    8.18817663038645
C         1.93404953932582   11.41639733550437    7.70733413834221
C         2.12722889755116   13.03217146291417    4.65533189395059
C         2.39460710746877   11.70077786034728    4.16685543629001
H         2.61107016657324   11.46917775774859    3.14407694013933
C         2.34288559525724   10.81575028323421    5.20324926293036
C         2.60421405780745    9.35585888222074    5.19462836079194
H         1.67349379776192    8.79078832257774    5.14742320488022
H         3.13869359666878    9.05317667996429    6.09296330311031
H         3.19629330419953    9.10309411424043    4.31925452251933
C         1.93489787354916   10.16703048861456    8.45272632925430
C         2.69485233468428   10.06280428528036    9.61740419476741
C         2.68172121563814    8.89368867582508   10.35384680623863
H         3.27943872044863    8.81824770275597   11.24961040574253
C         1.90409469879186    7.82152621564537    9.94654507462789
H         1.89506564309045    6.90947422261046   10.52367312397571
C         1.12940995565439    7.92599620098302    8.80268024960726
C         1.14161859428727    9.09021498447743    8.05839133974179
H         0.51107847716143    9.18224286722286    7.18675594270189
H         1.67192883958779   12.95339545064201    9.22625068055371
H         3.30339126118461   10.89864674346593    9.92794094496494
H         0.50852127362480    7.09879563484179    8.49265747830231

