38
CSD_code = SEWQOC | q = 0 | S = 0 | Stoichiometry = C14H16N4O3Ru | MND = 5
C        16.06200018561665    4.82136187678352    7.45178509347429
C        15.69321800318369    4.27264941450271    9.59998429688453
H        15.86029370586526    3.76481326175348   10.52768894814556
C        14.77081267939660    5.19934139332734    9.25747250955999
H        13.98427009719277    5.64846272649693    9.82863159150481
C        17.54617623010562    3.10596917649034    8.45737470215425
H        17.72800801854023    2.81458214138701    7.41928265819453
H        17.28648883871866    2.22687475289827    9.04833774664823
H        18.46199438930849    3.54630230852394    8.85807166697999
C        14.18654934138007    6.40920338419706    7.17304606362736
H        14.82289239909591    6.90013004498148    6.42630778531631
H        13.75927727320602    7.16954221930145    7.83185535201979
C        13.06321551640446    5.63356389032687    6.47401736996444
H        12.46510466535010    5.10679668339277    7.22060866746489
H        12.41549004542147    6.34115426138382    5.95295798387461
C        13.61685306029936    4.61004072779259    5.47654410983567
H        14.36170789098957    3.97214443189179    5.96640512583357
H        12.80245859419054    3.98300445753201    5.10280324201512
C        13.55709771029126    5.67617050836922    3.25556391176756
H        12.49873984830794    5.54547235169683    3.15969490017484
C        14.45961386125210    6.22419201732672    2.41383190961805
H        14.33267441476712    6.66673110352460    1.44722744628396
C        15.58096358716079    5.52672166849934    4.23358756261195
C        16.89213097907458    6.57413951635927    2.38391846898608
H        17.01394327774719    7.65245582427218    2.50684304834003
H        16.85861827276184    6.33493743196748    1.32113954776158
H        17.74228333017317    6.06945386625572    2.85676669021754
C        17.51399656354895    7.02821487692408    5.43551029807132
C        18.93778765630445    5.01211500817704    6.27303841451572
C        17.47612262461931    3.61008924635832    4.54572627527496
N        16.46536453943595    4.05136400658259    8.48997165653714
N        14.25406705131998    5.24849841033196    4.35547669873946
N        15.68315911912693    6.12178720533249    3.01848406324502
N        15.01276656503044    5.52689574231905    7.94890653223620
O        17.64011660006309    8.16647243701017    5.21358752480364
O        20.02122403169685    4.93956322860384    6.68159604008004
O        17.61420537137749    2.71533044923205    3.81017850150876
Ru       17.24691366169498    5.18205794794252    5.53487559574683

