57
CSD_code = SEWZOM | q = 0 | S = 0 | Stoichiometry = C20H22N8NiO4S2 | MND = 4
Ni       -2.05620020751472   -0.02993747004538    3.77448660884144
S        -0.62665374447831   -1.46907952483161    3.01763494388049
C         0.33794005741870   -0.27219841082165    2.19328201092360
C         2.54932261926379   -0.12853713785566    1.07241828271102
C        -1.92394862674209    2.20048323530812    1.85778136988304
C         3.68591660430321   -0.88323706343542    0.74752878499279
H         3.74309974512003   -1.91731164588144    1.05375003388367
C         4.63750275300417    1.01759984187591   -0.34751003406897
C        -1.25820808245081    2.99386779573376    0.78207864119167
H        -0.33164590871177    3.42104611091505    1.16387187613404
H        -1.90526944552118    3.78755257333229    0.42306630711020
H        -0.98791861347613    2.34000908155410   -0.04654327097492
C         4.72171038354645   -0.31689011389047    0.04427560033425
H         5.60215692828314   -0.88508112068193   -0.21317177076335
C         2.47858089765436    1.21127156817520    0.67540488391244
H         1.60159765393198    1.77866592294887    0.93385472420365
C         3.51461232214961    1.77761296606302   -0.03009311560636
H         3.47631835784976    2.80885589098954   -0.34579507725879
C        -3.31526297176643    2.56324309180390    2.24055405139028
H        -3.73945081904485    1.82250164586072    2.92083788563593
H        -3.93614136756515    2.61028734105234    1.34734959737805
H        -3.33469600414321    3.54535154181344    2.71283413171163
N        -0.06306403819626    0.93472545164535    1.96332007255055
N        -1.32240114233424    1.21450132048052    2.42626879403995
N         1.54581429239328   -0.74739259633723    1.77843886824433
H         1.69947827116886   -1.72057174957952    2.01339334040362
N         5.71287512454299    1.61111134613979   -1.08020520089257
O         5.60048391600136    2.77680477794108   -1.40756111664482
O         6.67828918187379    0.91748771169298   -1.33391905770984
S        -3.48571070022529   -1.46909851318312    4.53141776504256
C        -4.45036296254762   -0.27219383862640    5.35566190695447
C        -6.66173035767801   -0.12854253723597    6.47655471597040
C        -2.18844552548423    2.20044989891305    5.69122880433523
C        -7.79832257394189   -0.88324289799267    6.80144739813534
H        -7.85550366582922   -1.91731727913754    6.49522900552521
C        -8.74991613906906    1.01760217640778    7.89646597391500
C        -2.85420158228498    2.99386015929089    6.76690370355573
H        -3.78075405586133    3.42103846031824    6.38509195278521
H        -2.20714448611929    3.78754567552407    7.12591023979045
H        -3.12450781207647    2.34002286537214    7.59553237715405
C        -8.83412128011102   -0.31688918469293    7.50468569632356
H        -9.71457309440107   -0.88507197778184    7.76213124332632
C        -6.59099263024424    1.21127001476145    6.87355674717565
H        -5.71401217921761    1.77866831197248    6.61509894291615
C        -7.62702202203603    1.77761185753363    7.57905703279429
H        -7.58874762801589    2.80887325179897    7.89471752622812
C        -0.79714603231770    2.56324713591599    5.30842488903968
H        -0.37294272906720    1.82250532577280    4.62814976298827
H        -0.17626311242846    2.61031128885074    6.20162393330916
H        -0.77772987890810    3.54535434869480    4.83613589577087
N        -4.04934896943659    0.93471829970084    5.58564234398887
N        -2.78998354152811    1.21445277918779    5.12275123852091
N        -5.65822387322514   -0.74739852920472    5.77053309285283
H        -5.81187036048102   -1.72058899727620    5.53560707971060
N        -9.82529701040696    1.61112348642027    8.62914570026612
O        -9.71294631636420    2.77684506050758    8.95641978425128
O       -10.79071761725526    0.91750097622243    8.88284308193775

