39
CSD_code = SEWZAX | q = 0 | S = 0 | Stoichiometry = C10H23AuCl3PS | MND = 4
Au        3.96959767933615    7.91631584999580    8.09037755821607
Cl        5.96911489005658    8.56702071062397    8.94901293559728
Cl        4.34375240038459    5.82609998948645    8.88136655708249
Cl        1.95968582350737    7.22285431333616    7.26469813026647
S         3.61420832045331   10.13185342213629    7.31874865388815
P         1.87209771020180   10.80603922204919    8.10776575351809
C         1.61384888121898   10.39056259614772    9.94698603212730
C         2.04352310258093   12.65459486580795    7.92372071090639
H         1.15027179992260   13.09157171767506    8.38373724386853
C         0.40302170017420   10.18996284509861    7.12967134050994
H         0.22919643628072    9.18549157053051    7.53050422791324
C         0.87606009069313   11.53794292281174   10.64097222645538
H        -0.04907629335843   11.79271875395371   10.12943825243563
H         1.48976474317696   12.43068799441999   10.71969581051048
H         0.61927934685145   11.22247769705031   11.65105571335257
C         2.97804390296154   10.17782819545389   10.60202496869928
H         2.86539877456486   10.17221945727059   11.68463460119672
H         3.69412747194222   10.95212666350153   10.33575628785118
H         3.40586286851202    9.21827645944459   10.31150109968584
C         0.78587813594964    9.11297116565835   10.07361567498697
H         1.18750616056757    8.30868835062326    9.45964925434515
H        -0.25395017292706    9.27777154494815    9.79977042998108
H         0.81005745095805    8.77931462771036   11.10973657731457
C         3.29671081772812   13.16389369209936    8.63073279300916
H         4.18013780776091   12.67296666279530    8.22825921885117
H         3.26589312490278   13.00216068521228    9.70450315879572
H         3.39472386970562   14.23435561500342    8.45906651631582
C         2.10352840347037   13.04018557005007    6.44804883640797
H         2.35537413608158   14.09578117592131    6.36293351343849
H         1.15212544076286   12.88668029358522    5.94697046319821
H         2.87473886783276   12.46583386496026    5.93917572600221
C        -0.83862481780202   11.04965251657276    7.34222076275549
H        -0.69397294530975   12.06426278337716    6.97840047521723
H        -1.12779532583124   11.09280598733339    8.38939928266864
H        -1.66631921708286   10.61093614391043    6.78827047132381
C         0.72984622205839   10.01582477695931    5.65045743793898
H        -0.08995844177870    9.48135563491861    5.17555478180948
H         1.62659015767486    9.41421549339070    5.52880687240632
H         0.86653067581211   10.96079816817728    5.13445964915358

