61
CSD_code = SEYCEH | q = 0 | S = 0 | Stoichiometry = C22H28N6NiO2S2 | MND = 4
Ni        1.84651606453357   10.98345973191421    3.80451751987323
S         3.26595180192915    9.49482284259218    4.47576011700607
S         0.35871432565215    9.61372558357545    3.03630196025659
C        -0.60256732015669   10.86866323631828    2.28263767339710
C         4.28631884493710   10.64801402493555    5.30986877966987
C        -2.83081144006312   11.11813672950798    1.20489683682105
N         5.48774976126059   10.14188462763995    5.66717575747276
C         2.06911966519328   13.14027544048035    5.78699314921896
C         6.52127933742443   10.71163283063706    6.40176770022125
C         1.72789919203662   13.28438984207433    1.97612811814250
C         8.68821262677941   10.43145285520633    7.41358557224198
H         9.55113400976029    9.82596060045144    7.64010443015811
C         6.49661859953445   12.02387997329031    6.85629576278589
H         5.63883303159839   12.63409560666651    6.63184933096126
C        -3.98383672471764   10.40668281401379    0.86608691855442
H        -4.07096008959070    9.36572425375358    1.14235134341169
C        -2.73953894749750   12.45597732488949    0.84305558821554
H        -1.85214231738411   13.00478850828116    1.10719907046288
C        -4.91411220574169   12.36256815635651   -0.18622734700296
C         2.77775575701106   13.89077644655340    6.86887618195887
H         3.06785489073701   13.20394395922202    7.66345196687142
H         2.15109487180341   14.67804069961845    7.27614444620695
H         3.69643110428517   14.32097364513547    6.47167963634001
C         7.63556818251950    9.92053909544389    6.68977919910196
H         7.67047042773024    8.89821633253374    6.34150295987462
C         8.66119567031757   11.74899256887072    7.87434255650488
C         7.55429097513059   12.53804224263850    7.58675689020864
H         7.49836256238555   13.56073848711562    7.92505502318943
C        -3.76906859339945   13.07277873502509    0.15315768157087
H        -3.66103362878741   14.11255183849381   -0.11277460238061
C         1.05435098580449   14.14075572346735    0.95189907344779
H         0.73851008397847   13.52629457469569    0.10892222970244
H         1.71490297735230   14.92892089655503    0.60346844111923
H         0.15285076558313   14.57849704159233    1.37987837623381
C         3.14147377694289   13.59014959456816    2.33191619838716
H         3.20597740902885   14.54663551243165    2.85099345098675
H         3.73833645581160   13.65962720699529    1.42368498799612
H         3.56067305946216   12.80521079864514    2.96399536852756
C        -5.00855650486902   11.01946014804678    0.18230106346254
H        -5.90098271393500   10.47579837160568   -0.08329657868819
C         0.67221058410751   13.53490825536247    5.45292724809884
H         0.21792036947428   12.81302873346567    4.77157799171044
H         0.65346543252226   14.52499187154449    4.99682157015082
H         0.07736515775672   13.57325122036605    6.36425574898552
N         3.90742816804382   11.85427426462677    5.59191669396221
N         1.11140347261589   12.29354133300968    2.51842400928933
N         2.64173361341205   12.16336937841281    5.17556058247586
N        -0.16608118611608   12.07198940459686    2.08286876237843
N        -1.82679057278929   10.44730880722183    1.89378112672073
O         9.75492614644583   12.15366695202695    8.58442438294670
O        -5.98454894239254   12.87070707248667   -0.86467807966618
C        -5.94098190113878   14.21539861287456   -1.27147627048891
H        -5.86656612386706   14.89386346564556   -0.41491032867518
H        -6.88012412893044   14.39679250510942   -1.79200857278196
H        -5.10709355059682   14.40250249435709   -1.95638713795607
C         9.78300000983631   13.46944063415911    9.07776433085226
H         9.74164326179248   14.20460001159789    8.26745601980329
H        10.73170836624212   13.56731144496365    9.60318191642975
H         8.96201314668771   13.65453130587152    9.77807152284289
H        -2.00981532365734    9.47308290861722    2.09653689962644
H         5.62244726972673    9.17586042147808    5.39800875097906

