61
CSD_code = SEYCIL | q = 0 | S = 0 | Stoichiometry = C22H28N6O2S2Zn | MND = 4
Zn        1.74994075532751    7.80500987118763    4.07603678647258
S         2.48490707812723    5.63428437649130    3.59574940652083
S         2.67129485218659    9.94370184110921    3.84049537785661
N         0.05278091027095    8.54795983369938    3.11569769767638
C         1.24035503577717   10.50582668815000    3.01334826879538
N         1.60767745831404    5.80451381821711    6.18973416098570
N         0.15424610078640    9.85244073342257    2.75103104485080
N         1.36254927066302   11.80479613541910    2.65002090544148
N         1.26832793973490    7.10266354539700    5.98139394194640
C         2.14931282088310    5.12421140511372    5.23115775038473
N         2.50873471518683    3.83339606526592    5.42728422587750
C        -1.04658301769215    7.95079770949985    2.82285220454201
C         0.49939646790359   12.66212908043599    1.97850172158106
C         2.82026103113733    0.82687512720997    7.48222399852490
H         3.13985742439588   -0.19787350696358    7.38019823486733
C         0.13447556704808   14.87014678814712    1.08356586546465
H         0.46906459015690   15.87814311419648    0.89740276905716
C         0.93814830450741   13.96760767550501    1.74071952870719
H         1.91973278062058   14.27043716185098    2.07609625700037
O        -1.85205608793560   15.47031255260000    0.00141716330308
C        -0.76530750335705   12.29529190241722    1.53702540693458
H        -1.10415091577155   11.29140654953992    1.71667025728615
C         2.85832084205885    1.69013901497743    6.41188141784552
H         3.21397927035544    1.33915257349046    5.45375329439525
C        -1.23931399716098    6.52342041245687    3.18791189260544
H        -0.36094763137360    6.11540158646135    3.68139598080601
H        -1.43964836614724    5.93927123262975    2.29026024563097
H        -2.09920270727623    6.42290174013445    3.84988099700484
C         0.68997538011512    7.71197335726564    6.95355382828899
C        -2.16303855062902    8.64943739182763    2.11535495928260
H        -2.47313816425208    9.52099010401061    2.69131535115859
H        -3.01017704407767    7.98665708337101    1.96842907184759
H        -1.80978678797054    9.01149585274103    1.15011991122766
O         2.36603249710704    0.32372559989687    9.72225150464942
C         2.44302496806500    3.01741174728195    6.55027328879073
C         0.30072494618193    9.13915418991942    6.81175327681452
H         0.60822399958251    9.54303420415543    5.85061922000842
H         0.76458657292795    9.72593715759602    7.60389855957389
H        -0.77988115905255    9.24078536892512    6.91079450270537
C         0.39118684448102    7.03089056859510    8.25049393078895
H        -0.13372898662238    6.09520082198315    8.06170644381426
H        -0.20411338250785    7.66641590284405    8.89887227615949
H         1.32647831642642    6.77991824311892    8.75084148194342
C        -1.13670323720235   14.49938521284004    0.64079734438910
C         1.92201411340740    0.70417490781537   11.00049730767152
H         2.54564600495314    1.49841703160516   11.42417669709947
H         2.00698347260462   -0.18746466493077   11.61985535535942
H         0.87751412954210    1.03307166166328   10.98306592860238
C        -3.13713151828086   15.15249502085423   -0.47110467983362
H        -3.10603142568775   14.34925122256240   -1.21480077796768
H        -3.51223052217974   16.06101129119608   -0.93987220599833
H        -3.80744757405351   14.86501468772537    0.34589337349677
C        -1.57552693977863   13.20220307969063    0.87521095442907
H        -2.55064649642388   12.87788067758107    0.54709420789263
C         2.36611142608657    1.26036517575054    8.72932208729751
C         1.95671885099976    2.58039060837401    8.87117186939464
H         1.60382526080465    2.95359212028867    9.81978925532042
C         1.99604665558906    3.44789647641755    7.79282433844141
H         1.68416227975951    4.47033263028194    7.90436636808874
H         2.89986009139566    3.39861226215337    4.60117423466598
H         2.25591298988467   12.20677797658202    2.90465393222788

