71
CSD_code = SEYCIK | q = 0 | S = 0 | Stoichiometry = C26H42Cl2Zr | MND = 12
Zr        3.85100460642286    5.60037384493407   11.29733808019605
Cl        3.10312150867300    7.70238362872724   12.02729528512993
Cl        3.33419653288236    4.67505459424162   13.38974706615751
C         3.16399808420129    5.01413409929968    8.99616773367828
H         3.72993451310743    5.16672353045678    8.08502456323164
C         2.23103829782309    5.93072699043554    9.54603550305092
C         1.54678529458345    5.26223303094531   10.60579296521123
C         2.05811673969661    3.93242847761233   10.68852822193086
C         3.06471745597338    3.78330462774758    9.69867923429498
C         1.94967248548467    7.30370559498697    8.99060571392716
H         1.36624612721323    7.88615446572614    9.70687867171528
H         2.89140409539152    7.83996022887949    8.81747210129036
C         1.17619411189513    7.20923381499825    7.67124831449069
H         1.75347582546027    6.66475500983048    6.92735065933731
H         0.95957309049069    8.20171577069735    7.28349520030136
H         0.23697421307004    6.68257412540500    7.82167754056069
C         0.44286837527048    5.83972543196944   11.45457458253146
H         0.57569796163309    6.92176771967717   11.54743535455886
H         0.49333327079335    5.41620879691180   12.46394153210753
C        -0.94090236419215    5.56446271858209   10.85883185081868
H        -1.00969852033966    5.97933489085979    9.85598357410012
H        -1.71391311664987    6.01842902103116   11.47444933933942
H        -1.12937920271010    4.49574780444572   10.80256283929009
C         1.53445750005080    2.83579209182087   11.58004279246012
H         1.00342917031850    3.27497250550931   12.42678834234663
H         2.36571056549232    2.25122997837412   11.98893549465858
C         0.58017710881815    1.89677367561484   10.83425855277376
H        -0.21735106866006    2.46296935529775   10.35960464891488
H         0.13591659329358    1.18615713640394   11.52745976621952
H         1.10554308848776    1.34011629654667   10.06334349072344
C         3.71068954749350    2.49113998783724    9.26864391628028
H         4.79201579462132    2.60769531368190    9.14497994964329
H         3.54440514733065    1.72286457369583   10.02704774434738
C         3.12860612219282    2.01264552715273    7.93357949778333
H         2.04821104250716    1.91582115254953    8.00209513186777
H         3.54949833973693    1.04819589402486    7.65748614190202
H         3.35271598394103    2.72584412228156    7.14417993610042
C         5.93707992784197    5.04558568806029   10.21227907252758
H         6.04534647873663    4.39997782972009    9.34977337563200
C         5.89822932602075    6.46600049433418   10.16465373657708
C         6.01611610207104    6.94615780347575   11.49698514493400
C         6.09179594316674    5.82387810266870   12.36796702817741
C         6.03602641162735    4.64208335171040   11.57180089415533
C         5.94742192666229    7.29088780016280    8.90444012894319
H         5.17997933139965    6.96220400815082    8.19450408572683
H         5.75457686080633    8.33984942698978    9.14194208969796
C         7.31450652736841    7.17295170871803    8.22140629650780
H         8.10682498652363    7.47390356921520    8.90185969191168
H         7.35583955726350    7.80526662215004    7.33729120873869
H         7.50164842760605    6.14479497650567    7.92075305096480
C         6.15140890068473    8.39107677391011   11.89872134499269
H         5.79572460153644    8.52682099827384   12.92290492579472
H         5.52629641203088    9.01812901987232   11.25629797019283
C         7.60227886081401    8.87298167248604   11.80821564171042
H         8.24599077576327    8.26699438235480   12.44041373944161
H         7.67513627401727    9.90836407813156   12.13280726645221
H         7.96561199368332    8.80573936851133   10.78614426907688
C         6.32092690170291    5.87248642191821   13.85594169548249
H         5.73392183144713    5.09637583847754   14.35580316582401
H         5.98823135397402    6.83735232310303   14.24820096222128
C         7.79952546201118    5.67037857910607   14.20237991450895
H         8.14072717937931    4.69594494591787   13.86213727844014
H         7.94687705198028    5.73181914701527   15.27813144385131
H         8.41372954664805    6.43064723561830   13.72605596053674
C         6.12677840263907    3.21546383784469   12.05558226333340
H         5.26414403780696    2.63881473975016   11.69320958175155
H         6.09597753152013    3.19793553049475   13.14734017414634
C         7.41570710750635    2.54110993775206   11.57622001988614
H         7.44378889998190    2.49270403120300   10.49011227638645
H         7.48632028359265    1.52884779650217   11.96742787231116
H         8.28342046238306    3.10441613070900   11.91133509590984

