117
CSD_code = SEYDIK | q = 1 | S = 0 | Stoichiometry = C55H57IP3Pt(1+) | MND = 4
Pt       14.31658524347718   13.47472333212622    4.65977926783955
I        15.96176189085931   11.42598083559640    4.60814435247031
P        13.96182476933277   13.30934508620110    2.39979701963695
P        13.74498689769411   15.68449619149107    4.56602234284929
P        14.03355122637912   13.17723957192553    6.96493833560420
C        13.48743373837057   11.58519287648892    2.13506788153356
C        12.70132017891979   11.03238270866612    3.14692936348743
H        12.40538564692954   11.66135147263037    3.99001117018123
C        12.32491251297858    9.70220982953942    3.09975191309113
C        12.75407493286362    8.93538085575980    2.02039560754847
H        12.47530241380106    7.89253433067926    1.97802300382661
C        13.54787930978017    9.46411424263206    1.01256259807482
C        13.91815771051856   10.80375350747431    1.07658236904700
H        14.55873123847328   11.22317512865136    0.31440262009033
C        11.51368438445767    9.08578160787917    4.19656914535690
H        12.17291673928093    8.56259006161497    4.88982439323120
H        10.81100739857605    8.35931113942384    3.79535942307951
H        10.96197966419974    9.84068490904656    4.75283135888970
C        14.03227116583180    8.59803114896312   -0.10638430735817
H        14.94971086570937    8.09242819876959    0.19522271058391
H        14.24910518727136    9.18860679480292   -0.99293878748752
H        13.29693365393687    7.83698885742376   -0.35551511705157
C        15.23439072960796   13.74745503447843    1.20437913786783
C        14.95040953480135   13.73513354692579   -0.15813466919516
H        13.95754747702195   13.46904289771403   -0.49759275430344
C        15.93767230970585   14.07512944646115   -1.06850673524402
C        17.19081687278115   14.44657642714240   -0.59029506956780
H        17.95673771008154   14.72269116019972   -1.30075062705943
C        17.48535935631186   14.47227570927972    0.76532679824043
C        16.49138782278792   14.11020964653611    1.66417928084824
H        16.69120940973875   14.11441451143577    2.73004963798927
C        15.67603249454698   14.03229138697790   -2.54111583905657
H        16.11026289441741   14.89964725345288   -3.03287788915376
H        14.60958398417263   14.00311074643730   -2.74891224322905
H        16.13384168983881   13.14199548584542   -2.97253489503830
C        18.84318093361810   14.86192566593047    1.25635225207748
H        19.38523036444289   15.42350093068308    0.50033566554014
H        19.41911351218478   13.96793301441010    1.49533586415980
H        18.76784610960277   15.46085450819557    2.16136730852609
C        12.47377328873195   14.25321409708526    1.92479383135669
C        11.22525936139759   13.60806375179695    1.81509689079259
H        11.17463533913361   12.53322484958888    1.90996921200228
C        10.08897301887863   14.32664979185430    1.58215102091035
H         9.13528648464776   13.82569899897939    1.50335997277107
C        10.13417176105433   15.72730883804193    1.43162383809344
C         8.96976529446306   16.48665650004394    1.19748029329297
H         8.02043103325121   15.97405934277898    1.14607663105644
C         9.04155860746442   17.84041780124183    1.02878722459565
H         8.14738474769700   18.41547618832876    0.84131782561651
C        10.28172937131410   18.49414603380931    1.09260838463395
H        10.32419629130389   19.56345495098809    0.95107177973947
C        11.42702192463776   17.78885216787862    1.33244231566621
H        12.37760839785605   18.29832731729842    1.38498853664636
C        11.38815003618055   16.38789873223921    1.50452023037194
C        12.55511923505456   15.62588739764436    1.77124682573695
C        13.86883446394559   16.29775263635738    1.85956718614568
C        14.48581744409427   16.79561025914719    0.68273117091189
C        13.88950572721249   16.66695552839417   -0.59072316667914
H        12.92335291589714   16.19237423063813   -0.67349501427687
C        14.51951053149352   17.14079233923818   -1.70659567780630
H        14.04985501776691   17.04545393814946   -2.67377344750358
C        15.77980143073686   17.75040776289868   -1.60979042184632
H        16.26376125596389   18.11376675666022   -2.50366349239661
C        16.38621830497465   17.88419922950785   -0.39294929297532
H        17.35572004053751   18.35217962888748   -0.30762659556326
C        15.75699051306349   17.41938867463728    0.77962373081983
C        16.35293419658671   17.56539289415220    2.04844887774409
H        17.31120616539770   18.05859013691670    2.11866575337613
C        15.73653396715178   17.09970936664906    3.17291354188758
H        16.20364190260347   17.23133097283925    4.13758647096632
C        14.48748812300737   16.45031975821569    3.08839521602973
C        12.03228197903000   16.24499142581147    4.62305999213801
C        11.03353777683176   15.29737360237388    4.80288998221526
H        11.31070933076421   14.25316165056829    4.91202072140385
C         9.70012912477988   15.67745835987221    4.80924952097858
C         9.39817712258843   17.02513443940024    4.65920172336911
H         8.36287753908548   17.33389633339579    4.66545783038828
C        10.38556744376380   17.98966706615603    4.49146767490382
C        11.71271621585708   17.58773606583426    4.45821133705754
H        12.49938199538685   18.31077853439176    4.28785536222288
C         8.61111939822642   14.66618965198793    4.98332011406591
H         7.74531255915176   14.92807034133959    4.38039209311939
H         8.29246103217459   14.63399783763855    6.02554646836938
H         8.95270059624483   13.67364136685060    4.69991324145926
C        10.01598251206452   19.43307439095075    4.35961035007155
H         9.13676642697659   19.54757809618764    3.73108322901092
H        10.83328907031667   20.00905194620282    3.93484720883885
H         9.77939437223917   19.84642150151371    5.33995177916729
C        14.65324157770214   16.43980028788373    5.93839377658069
C        14.18273413877326   17.47710410209896    6.72938356522117
H        13.20298463283329   17.89586039058732    6.54994651162331
C        14.96497755468312   17.96315727965705    7.77159928155038
C        16.21472806553798   17.39933196144738    7.99647214434483
H        16.82381823428992   17.77811644129983    8.80446166992058
C        16.70389250233510   16.35733278714565    7.21449477738250
C        15.90384583602938   15.87515167371194    6.19034182085139
H        16.25633769079596   15.05509732778238    5.56246249279910
C        14.47864403988095   19.08473540958217    8.63431310177902
H        14.65953233866594   18.86854521603437    9.68513613678058
H        13.41618946005527   19.26083196790163    8.48714756619144
H        15.01525303938756   20.00097302701857    8.38913857802984
C        18.06307039677656   15.78504580210220    7.46985135751190
H        18.82737152420038   16.48812065315683    7.13903933611333
H        18.20578993805671   14.85031038746994    6.93291097020076
H        18.21788182122826   15.61218852499171    8.53308976846415
C        13.04455003580840   14.36399424065731    7.95001009805404
H        12.15465007925442   14.66749861348631    7.39964615921941
H        13.63665818932349   15.24920949075068    8.17242829653480
H        12.74717439880409   13.88940348626681    8.88466005436168
C        15.44541235615544   12.87479332057878    8.07744242694969
H        16.04499458083566   13.77880782989537    8.16324798667027
H        16.06494473272011   12.07079784814602    7.68357686241043
H        15.06731054491173   12.59569578567820    9.06076846627729
C        13.04913580333522   11.64774603426241    7.16418896790600
H        12.90786282417730   11.43981908967008    8.22480883279134
H        13.56693749207732   10.80928206448709    6.69922723343304
H        12.07379550707771   11.77147541302708    6.69300159121827

