64
CSD_code = SEYDEG | q = 1 | S = 0 | Stoichiometry = C28H31IP3Pt(1+) | MND = 4
Pt        2.23210725664728    1.75398120025825   14.66493400522039
P         3.73487327342379    2.79325567324227   16.07363970712911
P         1.71358315132500    3.42377755861668   13.15060226887027
P         0.84578424669460    0.84784255058900   13.04765554869845
I         2.26808384303458   -0.37924468008915   16.13628933186329
C         5.35071372342560    1.96615292908217   16.20917743827420
C         4.17310089778585    4.50047890305019   15.59077848478248
C         3.20256687945376    2.97938883283948   17.80570010874760
C         1.20287008039626    2.22482244067003   11.83301174419085
C         2.57072517430215    4.81025422967138   12.36536030034238
C         2.25068988901594    6.12415576002112   12.69573541010553
C         2.95082371953157    7.16510074227511   12.11352995614107
C         3.97682462487044    6.90083307966811   11.21977315122696
C         4.31327330376387    5.59174715042323   10.90997289073715
C         3.61884367661879    4.54516271364687   11.48685385111414
C         0.09622771202807    4.00734196867544   13.71481058855226
C        -0.77141269665995    4.68467570103771   12.86304021768148
C        -2.04319308245891    5.00615892239364   13.29888742888889
C        -2.45194785062081    4.65525121576544   14.57695792211143
C        -1.58746117116257    3.98917489553515   15.43031134090399
C        -0.31351640678580    3.66652751638941   15.00058855714051
C        -0.94945016520958    0.80079723783965   13.22468638010402
C        -1.48608298876252    0.62193574673571   14.49591578764521
C        -2.85822508499169    0.59702074670072   14.66481146572923
C        -3.69222163188218    0.75006119717994   13.56928044466812
C        -3.15767772785750    0.91586918916285   12.30049644971396
C        -1.78730857385993    0.94062023086723   12.12178888214966
C         1.39909828853545   -0.67424875437926   12.25497831736822
C         2.78050725786228   -0.86120636404191   12.22027980257614
C         3.30559107919973   -2.00909702147808   11.66254829521772
C         2.45090071893961   -2.97500493213628   11.15096865339031
C         1.07779528819196   -2.79611976885893   11.20117512622077
C         0.54190144155630   -1.64756624068380   11.75759955409926
H         6.00688037815901    2.55480685643607   16.85014364289929
H         5.21777155263786    0.97303860910383   16.63725658204731
H         5.80125086441724    1.86800534065281   15.22185413873695
H         4.87120448400897    4.92274256177155   16.31245411704310
H         3.27402226958937    5.11580091542747   15.55642537111674
H         4.63334749175460    4.49965919312471   14.60310253647830
H         3.01052040115050    1.99841997177042   18.23890293298100
H         3.98982188327069    3.47808566641982   18.37074024030461
H         2.29100603256760    3.57405488071661   17.85546230153683
H         2.05889409939844    1.94080526534917   11.21257739618970
H         0.38090917960730    2.55852567738813   11.19585631183948
H         1.45188017265867    6.32527110967945   13.39642704847343
H         2.69613877389973    8.18458775940741   12.35924410371930
H         4.51968725447900    7.71622074642053   10.76782950391486
H         5.11870131476442    5.38806337362774   10.22112817795586
H         3.88821516647721    3.52224145271883   11.25856512390171
H        -0.44682543951496    4.95712653408619   11.86745810597625
H        -2.71949403234300    5.52900732670750   12.64016540744900
H        -3.44771379132313    4.90488386626566   14.90858925604229
H        -1.90701282889134    3.71992222258966   16.42513880995131
H         0.37803797554853    3.14276255750254   15.66588408283720
H        -0.82618933051606    0.49750358020250   15.34443599059499
H        -3.27628711648129    0.45560092869284   15.64938455478313
H        -4.76308956815915    0.73317382880043   13.70064180756248
H        -3.81096852268645    1.02198500828006   11.44774464728878
H        -1.37080024570161    1.05566534650530   11.13005980605309
H         3.43175146842124   -0.10397336026731   12.65511013679576
H         4.37367548553526   -2.16154867332947   11.63726892612019
H         2.85861159233422   -3.87802770346792   10.72383297068267
H         0.41943121266288   -3.55871901974345   10.81447891472508
H        -0.52856632408040   -1.51129239348149   11.81549764238276

