144
CSD_code = SEYGIN | q = 0 | S = 0 | Stoichiometry = C51H87BClFeP3 | MND = 4
Fe        3.72169890930370   13.72639109251922    3.61275045975875
Cl        3.79882333565296   14.59097414538228    5.41661345750164
P         4.44343588248707   11.85296980840039    2.78042817676187
P         5.48538648007586   14.82920037988896    2.87785708978055
P         2.60683241887366   14.10465066375964    1.74274461364434
B         5.00295731640503   13.36624925633327    0.31012308475614
C         5.64608833304018   13.29010696439450   -1.17795716905042
C         5.52637020133484   14.37661569831453   -2.04641640882706
H         4.99503091437843   15.26016266699184   -1.71650210477568
C         6.06532683354925   14.37369009829121   -3.31931508690193
H         5.94837417722309   15.23863233335364   -3.95957706772570
C         6.75642008768131   13.26536439250436   -3.77712928120675
H         7.18048478307312   13.25472924066195   -4.77182035735350
C         6.89757372302441   12.17315048351687   -2.94101760268393
H         7.43755792514878   11.29935981484514   -3.28259851283054
C         6.35196244216594   12.19340622442632   -1.66865925508505
H         6.48719859467280   11.32193840715068   -1.04369888665123
C         5.23071781241114   11.96000809568748    1.14098212777685
H         6.30113284310182   11.80628072156397    1.30975338668940
H         4.86476062327473   11.10355095195319    0.56551891462564
C         5.73568395961791   14.64473217424565    1.07895206994009
H         5.38701724622824   15.57095781939210    0.61747978610078
H         6.81651603664100   14.59390349285501    0.91540451307779
C         3.37976989270145   13.63376494415617    0.17170787537617
H         2.88814723400598   12.71837915364079   -0.17049551613824
H         3.15942690487082   14.41513895887171   -0.56021759493655
C         3.04970049020975   10.65015339840492    2.52338142821526
H         2.45496850422611   11.06208581200889    1.70198473360553
H         3.48551807598590    9.70586898171556    2.17729649606685
C         2.15435263881079   10.38122562077185    3.73772724615908
H         2.75142349209079    9.89167260857301    4.51033463030426
C         1.01682675392238    9.42250141862030    3.36810707975176
H         1.42577662165963    8.51748922395348    2.91269699750904
H         0.36199980797326    9.89679947861313    2.63254587032704
C         0.20912681672484    9.05221979028028    4.61018332598618
H        -0.60879837288369    8.38359178637592    4.33399150058701
H         0.85360073491772    8.51621976508094    5.31127316479202
C        -0.34782778262444   10.29936355971553    5.29069632884242
H        -1.06072890848598   10.78803706315231    4.62213536360664
H        -0.88242569937505   10.01826308223671    6.20009376743521
C         0.77663010368803   11.27572055979556    5.62792307711025
H         1.45411839937307   10.81937441541280    6.35332967412489
H         0.36252121252901   12.17860812018718    6.08106844092140
C         1.54172797228936   11.63454112827323    4.35871856774817
H         2.32698026704575   12.37773949179463    4.59519362568297
H         0.84986640287827   12.09780341862701    3.65813510472441
C         5.71811397837146   10.77641840969541    3.62568592299701
H         5.99720756049796   10.03792150320193    2.86383922647707
H         6.58321978937510   11.42428776238568    3.78685458723712
C         5.39884085571079   10.04337215264222    4.92506661387986
H         4.61569864205530    9.30312625081024    4.73155888706551
C         6.63095606487703    9.27466661453483    5.41523537860669
H         6.97834798992147    8.59074126188755    4.63691605400345
H         7.43942007976695    9.97847066289169    5.62631439972002
C         6.29857440524902    8.48796985639968    6.68093525658617
H         5.53402287596213    7.74121389322192    6.45162969270048
H         7.18688229654035    7.95732405453674    7.02998089349524
C         5.78456841541556    9.41623266118954    7.77785267025194
H         6.57771701661074   10.11116101937650    8.06393692107870
H         5.51825266722613    8.83370341551002    8.66230519893423
C         4.57390859134854   10.20625899883590    7.28808392668231
H         3.75447011721406    9.51480262456690    7.07271605775382
H         4.23567871459103   10.89219670667145    8.06770226336176
C         4.93440217476236   10.98656330927090    6.02896889624067
H         4.08184486360048   11.57582448372484    5.68101869703708
H         5.73968675722130   11.68338190913828    6.26584673279212
C         7.13657031904068   14.26062926108651    3.49785410095520
H         7.31398909264633   13.34078032060761    2.93054079066506
H         7.88531968989213   14.98828118901323    3.17088976020404
C         7.28211190660499   13.96332960966423    4.98989810413676
H         6.41065107120220   13.37543373887255    5.29823624222483
C         8.55448202557462   13.14732476810214    5.24127838883918
H         9.42138895336377   13.73270805134575    4.92289078638257
H         8.54181074847611   12.23154786954108    4.64360497462036
C         8.70393045544203   12.79081630778484    6.71786529368816
H         7.86812143074551   12.15769758752349    7.02572106680149
H         9.62495120632619   12.22274915083902    6.86971654124388
C         8.71700603460101   14.05014523242066    7.57690830276576
H         8.78960715440918   13.78093702488088    8.63292279866450
H         9.59348325366787   14.65209300307423    7.32457493458277
C         7.45351121129384   14.86661169041195    7.32922647995616
H         7.47660826125793   15.77983364022666    7.92777743317697
H         6.57783750831771   14.29000670250091    7.63604419695184
C         7.32441281449111   15.22342951895877    5.85128113548526
H         6.41152450142393   15.79759507122702    5.70063464451784
H         8.17617999715361   15.84183475122055    5.55589512745748
C         5.46327801374819   16.65972874515718    3.24598762634455
H         4.69255557788949   17.09712218464529    2.60622038137004
H         5.08826999868959   16.73779420316701    4.27137175678774
C         6.73154813281822   17.51013297855878    3.12435504137782
H         7.55614708566132   17.02830969611980    3.65609574961252
C         7.15192057340509   17.73509927002332    1.67284248604420
H         7.37149715761850   16.77970222382305    1.19656770947113
H         6.32767566596510   18.20213949696756    1.12749799747152
C         8.38235842295751   18.63468750345749    1.59021151631977
H         8.65659286658260   18.78524908477690    0.54404962935525
H         9.22387543454614   18.14563036343951    2.08753560967526
C         8.11409499323829   19.97823034879402    2.25896066141448
H         7.31170604232586   20.49435277203103    1.72657415909558
H         9.00606728430397   20.60634630687473    2.21019677535008
C         7.70338746909797   19.76537582192557    3.71182731469486
H         8.52952408546512   19.30232835018462    4.25711596865128
H         7.48866586473168   20.72585059080338    4.18552688781492
C         6.47478164004096   18.86462742803792    3.79458272185877
H         5.63151786566015   19.35284015035083    3.30031468577606
H         6.20375682613844   18.71225756030872    4.84206493302662
C         2.38218961291532   15.93809605243586    1.54882310690184
H         3.36950956175163   16.32768255021707    1.28793302391624
H         1.70391202112228   16.14926254610469    0.71898580350417
C         1.89473569180672   16.54929881315267    2.81448384156002
H         2.43640189441710   16.25032089016938    3.70637536118373
C         2.66369276972014   20.57828042802757    3.08619364615233
H         2.03665407944545   21.05496998028264    2.35014196094449
H         3.71984149918504   20.77191260400544    3.00370918311269
C         2.16047620110126   19.81589684713133    4.03771949498555
H         2.81218240223016   19.34560112877675    4.76289999907773
C         0.70424318735890   19.52293839625654    4.20632401695018
H         0.13522368262546   19.99557892912178    3.40317182057317
H         0.36221284452906   19.94051726327165    5.15814136447595
C         0.43988994178113   18.00884363939229    4.21039818078508
H        -0.63064284065827   17.83852721519688    4.35598042914417
H         0.97748520457234   17.54703836238329    5.04079148557275
C         0.88076146064467   17.39175706676611    2.92172037580446
H         0.33946763441557   17.71437552748037    2.04005707116873
C         0.82171133039708   13.59875496191954    1.55632168734065
H         0.77491660879361   12.51488931868882    1.67702792503423
H         0.28766168587488   14.05319720923665    2.39832577255569
C         0.15300901594887   13.98013560796003    0.22484542595911
H         0.86938833548976   14.50964640140793   -0.41135964297039
C        -0.29813657296724   12.73565473119254   -0.54303696365297
H         0.55827117458630   12.08227404459380   -0.72467140864615
H        -1.02562785775464   12.18139298423951    0.05686570903654
C        -0.93336140506644   13.12439620966633   -1.87521448899432
H        -0.18803632867415   13.62802238681824   -2.49506289948447
H        -1.25667549808877   12.22663014161142   -2.40615670729604
C        -2.12168848550562   14.05461887743701   -1.65352748619018
H        -2.89494578788244   13.52713457878363   -1.08970490392393
H        -2.54998407113874   14.34764650257501   -2.61416240169361
C        -1.68737621910301   15.29315803882825   -0.87650911520288
H        -2.54749924072203   15.94165325614890   -0.69625055275703
H        -0.96257506812166   15.85642416644031   -1.46946960894906
C        -1.05279216239200   14.89312289559735    0.45247471378181
H        -1.79281012912378   14.36672466783986    1.06140677895225
H        -0.74477110866726   15.78441095285783    1.00267187437999

