81
CSD_code = SEYHUA | q = 0 | S = 0 | Stoichiometry = C26H40N4NiO4P2S4 | MND = 4
Ni        7.59615325141713   10.85901636518862    4.60024527347158
S         6.03409400612374    9.96379675135793    5.97514510906444
S         8.68500526519327    8.91697158237473    4.16550298214541
P         5.56220082991481    8.40759662210042    4.78771635413249
O         5.12960213208352    8.82150786132562    3.32909009251404
O         4.24674990316985    7.71835036556051    5.32967079535392
N         6.64192222747185    7.20331343847693    4.67590735538796
N         8.78228096979893    6.38183780945617    4.40769054013082
C         7.90911586731238    7.41098608882923    4.45385292223858
C         8.59111588119674    5.00878547665656    4.53474161083005
C         9.72289302188866    4.19714871376108    4.44131793473140
C         9.61346952517474    2.82650151999081    4.56482027783640
C         8.37629134762830    2.24248618147772    4.78274898717284
C         7.25161546652528    3.04459267843361    4.87266926763684
C         7.34901165323568    4.41879135561689    4.75056090923986
C         4.58920478945011   10.11372823515402    2.99261408110653
C         5.64020659820745   10.85209459926184    2.17774026610840
C         3.29406719750029    9.88948733061010    2.23046991136536
C         4.26784858431579    6.97580006781267    6.55740310866846
C         3.47670818043864    5.69686738383426    6.32546638375449
C         3.67574390545094    7.82841225317205    7.66971640363269
H         9.73615848712740    6.66982646247036    4.22355297783879
H        10.68945764552667    4.65014785484721    4.26961524840695
H        10.49815493791021    2.21156343371142    4.48997835642962
H         8.29098202817788    1.17089258571590    4.88012283270457
H         6.28295327919033    2.59692172811372    5.03968447927321
H         6.47356043452241    5.04083616117421    4.81419112583672
H         4.38958063986852   10.66899790080522    3.92028467692566
H         5.31075081786815    6.72729212400553    6.79132816086985
H         5.85743109059072   10.31266363883266    1.25904389593044
H         5.30431773305582   11.85891204753557    1.94564952551168
H         6.58393242547615   10.91718380269156    2.76942036752723
H         2.59200075352397    9.33537074579586    2.84821469365905
H         3.49173561448546    9.31703446396408    1.32768811493540
H         2.85586420157310   10.84632742595488    1.96064450898049
H         3.91320484305816    5.13483681490664    5.50424192105901
H         3.49038325617002    5.08596199011926    7.22364796750518
H         2.44811108645675    5.94069510522103    6.07209790330047
H         3.68743612935815    7.27640613952772    8.60538495474361
H         4.25534714130460    8.74078707351005    7.78790739252639
H         2.65080672518282    8.09545715658895    7.42380361185159
S         9.15809082589207   11.75429834041888    3.22526235906510
S         6.50696408404812   12.80110387839191    5.03440593574804
P         9.62998856639224   13.31046733169140    4.41270223347546
O        10.06255181176383   12.89664400854119    5.87137115668563
O        10.94536878961196   13.99984400606180    3.87071452584361
N         8.55020487533104   14.51465877752044    4.52444803696328
N         6.40995685697000   15.33634899433813    4.79224916999553
C         7.28295564735310   14.30705027472513    4.74619617772930
C         6.60152743362917   16.70936301067085    4.66544506679312
C         5.46977736893328   17.52121555630554    4.75746389783993
C         5.57957955390049   18.89187992205797    4.63412726683667
C         6.81715141705820   19.47566327759509    4.41749893241658
C         7.94172432959248   18.67332005621905    4.32908362010817
C         7.84398650838956   17.29919069105638    4.45116287241684
C        10.60322739641935   11.60454514837214    6.20786710299733
C         9.55229819530829   10.86586934065947    7.02254473894545
C        11.89818664798185   11.82907874416717    6.97022688204143
C        10.92389083181014   14.74267402024692    2.64314899406677
C        11.71490231348032   16.02166626081990    2.87517683610994
C        11.51578459713944   13.89038674360743    1.53048136386851
H         5.45592893325672   15.04854666385654    4.97587901016416
H         4.50281405987887   17.06839905988155    4.92732070533435
H         4.69489564200048   19.50693771312460    4.70733821078806
H         6.90264757961887   20.54719747282363    4.32005263916565
H         8.91063125505234   19.12082681358222    4.16315784705962
H         8.71936451419895   16.67697628824043    4.38850914234149
H        10.80314053666710   11.04938346757689    5.28020371221931
H         9.88090585554749   14.99112138331485    2.40954249326640
H         9.33478413987051   11.40522150126249    7.94121241975779
H         9.88837172136940    9.85911830717269    7.25464991988069
H         8.60867700838931   10.80057420318782    6.43071870184522
H        12.60019821499909   12.38341671527141    6.35261873531219
H        11.70020328551210   12.40144052249545    7.87299440097766
H        12.33660836259738   10.87234505084668    7.24008658380746
H        11.27850899675121   16.58345104547625    3.69662427451059
H        11.70091590016131   16.63277289444777    1.97713588743865
H        12.74359061028093   15.77792916022962    3.12825050107784
H        11.50367972728054   14.44258104652678    0.59492873140526
H        10.93629921417395   12.97793450806916    1.41230251138611
H        12.54084651746845   13.62347046320393    1.77600311997649

