91
CSD_code = SEYKUC | q = 0 | S = 0 | Stoichiometry = C44H42CdO2S2 | MND = 4
Cd        8.15015566610746    0.00045376288670   12.27072973631461
S         6.47309122408972    0.64165580971327    9.97367952690904
O         9.13914930692737   -1.42188665251028   13.35189357163747
C         9.00207834258873   -2.71602888614455   13.25882757069887
C        10.09301668818234   -3.55600502068110   13.62081622883224
C        10.00417028561635   -4.92912679566150   13.46902106672607
C         8.85999297153204   -5.52420637147621   12.96328382840456
C         7.78928040639922   -4.72847689143409   12.60695294307488
C         7.83399145557202   -3.34529438214908   12.75222577643399
C        11.32826771133330   -2.95241694510434   14.14523629703008
C        11.28406200042840   -1.98479004074010   15.14603886692624
C        12.45051289200379   -1.42116992073863   15.63047808723426
C        13.67933931248012   -1.81059487368574   15.12259106554435
C        13.73436555270908   -2.77203144799468   14.12739495561912
C        12.56976452969112   -3.33900156529280   13.64376559313969
C         6.65631974607638   -2.54864523663216   12.37639058181530
C         5.97244639711168   -2.80804920232285   11.18337033336578
C         4.81410720103919   -2.12452409840448   10.86643986917688
C         4.31013414848329   -1.16461690379897   11.73143875481548
C         4.97001736353144   -0.89281345493099   12.91819973224044
C         6.13954050227315   -1.56981774018456   13.23959696851852
C         5.28662733565301    1.91757408882250   10.53952594827214
C         5.85896700145917    3.26046220925221   10.11413665774402
C         6.55979498176374    3.03283599649993    8.78018312758429
C         7.46533991677192    1.83211087106422    8.99066852268314
H        10.84146389398920   -5.54238468870654   13.77172990185455
H         8.80126343299029   -6.59715317481814   12.86074525426085
H         6.88052442669978   -5.18266971687975   12.23622012591840
H        10.32749084870726   -1.67920971249235   15.54135440181664
H        12.40257718544303   -0.67309211781300   16.40944437027066
H        14.58918335135166   -1.36668552268779   15.50010943493724
H        14.68963005303561   -3.07995937661241   13.72563475063335
H        12.61682669885792   -4.08148503958425   12.85886318819927
H         6.34113026634187   -3.57788768135149   10.51754192955794
H         4.29559926004025   -2.34707220905965    9.94475604197259
H         3.39422201561595   -0.64524003446987   11.49005695277929
H         4.56493015283694   -0.16995335086159   13.61169265342518
H         6.59624080158156   -1.41963508299160   14.21215429537966
H         4.34029000649386    1.70250123387769   10.04285395858820
H         5.16616620745981    1.82457688304863   11.61569944301111
H         5.06578471861095    4.00355884363359   10.03400156280890
H         6.58151769233890    3.60658410234921   10.85423237741629
H         7.13744668763683    3.90470406659393    8.47363199790619
H         5.82338335739397    2.80968766296729    8.00541912444258
H         8.35899283291215    2.08686136218485    9.56096086332252
H         7.75426015786332    1.34146100493392    8.06370633652360
S         9.82575549563538   -0.64172418789293    9.97396856496813
C        11.01239962463191   -1.91757526480792   10.53960300482024
C        10.44007066003875   -3.26045918852384   10.11416643902483
C         9.73925153433135   -3.03282761714639    8.78021027507311
C         8.83368135703898   -1.83211903122449    8.99069587443544
H         7.94000598972662   -2.08693271996884    9.56091805222974
H         8.54479983459541   -1.34143398760855    8.06373624537840
H         9.16162698630601   -3.90470398992607    8.47361740117499
H        10.47567649746724   -2.80963971447416    8.00546847710154
H        11.23327755484127   -4.00352968395389   10.03400945058673
H         9.71752676458627   -3.60664210673756   10.85424544775189
H        11.95871240273929   -1.70243000151896   10.04290408612583
H        11.13288765330284   -1.82462422312804   11.61577398355720
O         7.15990865269500    1.42190617907795   13.35183898159227
C         7.29690872016781    2.71604832991297   13.25887864605250
C         6.20593715497151    3.55600098446736   13.62080743020960
C         6.29476352592380    4.92912605423550   13.46900005933470
C         7.43894759003639    5.52420967736410   12.96328170288283
C         8.50968056032427    4.72847786160917   12.60697508678522
C         8.46496990601561    3.34529511871754   12.75223991659423
C         9.64253704603177    2.54852696793991   12.37630150571142
C        10.32646826935796    2.80805216854250   11.18334361347890
C        11.48485049282226    2.12460204925041   10.86641551831051
C        11.98884813945073    1.16469929821718   11.73139586845064
C        11.32896473935367    0.89286053251091   12.91814501656947
C        10.15937769684428    1.56975425883727   13.23950531277262
H         9.70270304761761    1.41956332114133   14.21206607446411
H        11.73405516408466    0.16999007819994   13.61162129436824
H        12.90476732014936    0.64533797129460   11.49000189807498
H        12.00334641329344    2.34717218460052    9.94472962411816
H         9.95779354677674    3.57793010980378   10.51755398657004
H         9.41841222180468    5.18267745660431   12.23618977726196
H         7.49765660212299    6.59715870304795   12.86071678072990
H         5.45747070751671    5.54237952789108   13.77172542953359
C         4.97070789495051    2.95238678938992   14.14523859693313
C         5.01494989829280    1.98479306708194   15.14607702616938
C         3.84851864264471    1.42114023143436   15.63052345144989
C         2.61967792257975    1.81051103254784   15.12262192292589
C         2.56462146424220    2.77189098086751   14.12736864131514
C         3.72920347217836    3.33888741552942   13.64372408492483
H         3.68212245291750    4.08138008565585   12.85883937567847
H         1.60934343325557    3.07979702634802   13.72563087999663
H         1.70984820211004    1.36660335394818   15.50017907129638
H         3.89647722235907    0.67311502043944   16.40954543864784
H         5.97153253383840    1.67926412076529   15.54140610880302

