99
CSD_code = SEYLIR | q = 0 | S = 0 | Stoichiometry = C36H54CdO8 | MND = 4
Cd        2.40641016261463   11.11801282119214    4.28508444936396
O         0.04450896610612   11.04717719475769    3.72417210966507
O        -1.28031096685666    9.27754461961098    4.01952809588422
O        -0.90367097653922   10.65332437301767    5.70447027751187
O         2.01054423354203    9.34189184421914    5.11316163415386
C        -0.64716109701745   10.36847901095676    4.42794453432773
C        -1.85244164597881    8.60433562557756    5.14081532510909
C        -1.79506155423634    9.68668326486845    6.23739932974364
C        -1.02506611551366    7.37085965266261    5.47338907161909
C         2.90538569471137    8.39911741723735    5.40596772458084
C         3.30515681156271    8.19535572861387    6.75886410159418
C         4.18323139474577    7.16528494851451    7.05217829321911
C         4.67599277296400    6.32972520548099    6.07174829719381
C         4.28834018782069    6.52001905086449    4.76235403713030
C         3.40997910608754    7.52853963115931    4.39737585544377
C         2.82111444022077    9.10319196559118    7.89378287297933
C         1.28965949576039    9.18018957239285    7.90686586543909
C         3.25120873745102    8.61463105267876    9.28489808672815
C         3.40913906583199   10.50635624158489    7.70378300570752
C         3.05295137318855    7.69170109455904    2.91428037573951
C         1.53425183953014    7.75142438145956    2.70705528662528
C         3.71358782074005    8.96791014601770    2.37711967208099
C         3.55949037952090    6.53142479246204    2.04116353801810
H        -2.87816823541366    8.33446942447113    4.87226113864852
H        -2.76341079889893   10.16582393176811    6.41518946354535
H        -1.38534062506032    9.31265249696293    7.17641750592012
H        -1.07373449289740    6.66362770548340    4.65055697643203
H        -1.41024850299371    6.89794697056556    6.37224474731122
H         0.01465164440181    7.65517916546671    5.62412537093054
H         4.50807611727241    6.99496555366414    8.06481633093680
H         5.36255848067802    5.53518092226687    6.32669887091749
H         4.69432256478398    5.85333888846288    4.02030221789359
H         0.86908500758436    8.18433052496246    8.04204408674474
H         0.94526552653177    9.59787841115674    6.96786687106958
H         0.95005522555763    9.81718487698268    8.72316752731806
H         2.89389239950419    7.60538411705385    9.47796371240080
H         2.82155605885471    9.27286249426710   10.03895214307853
H         4.33159797771919    8.64136772175942    9.40219564292533
H         3.07994388095558   11.16665516970319    8.50567653274978
H         3.09683359731372   10.92982847807951    6.74822401376863
H         4.49611018703022   10.46059569016673    7.71018352274618
H         1.07699660572695    6.83163024664166    3.06663786052335
H         1.30188257122234    7.86178910257849    1.64854627551361
H         1.09868545925445    8.58841365165961    3.24187308784048
H         4.79413534311133    8.91646995412533    2.50592030370690
H         3.35093332525603    9.85216908373417    2.92249773446262
H         3.48725321624026    9.10111574480584    1.31898201072391
H         4.64566677128028    6.49367571312624    2.01080752629098
H         3.20623383252046    6.67648550372747    1.02130044018742
H         3.17749546610869    5.57703704344656    2.39579850929155
O         4.76826366811849   11.18882300133893    4.84618288470861
C         5.45993939459717   11.86752803132827    4.14241946021783
O         6.09313413043163   12.95842525121100    4.55086501067909
C         6.66530905057675   13.63162377218641    3.42959402234912
C         6.60793581807673   12.54927801464747    2.33300776016574
O         5.71651164006210   11.58265499029520    2.86591396576337
H         7.57628248171821   12.07012071497987    2.15524797592474
H         6.19824801234629   12.92331268816455    1.39397597486355
C         5.83797190252141   14.86512193442561    3.09700070242723
H         5.88665544973938   15.57236382856026    3.91982615725317
H         6.22317211546681   15.33801234205346    2.19813847684641
H         4.79824909542835   14.58082014505376    2.94626246385029
H         7.69103559253112   13.90146234795717    3.69816785496564
O         2.80235895969625   12.89419338671465    3.45718238688396
C         1.90752265171121   13.83697580906314    3.16439344555355
C         1.50773325028481   14.04072622177251    1.81150527858398
C         0.62963857409414   15.07078110172015    1.51819667272786
C         0.13687995690034   15.90633605965017    2.49863379526158
C         0.52454110220670   15.71604094326846    3.80802668703908
C         1.40291349186594   14.70752684377106    4.17299662670345
C         1.75992684399458   14.54431223919555    5.65608875612381
C         3.27862525691995   14.48459939944832    5.86332481692001
H         3.73587420890926   15.40440924528558    5.50377447045967
H         3.51098664477158   14.37420378723339    6.92183219179799
H         3.71420287905014   13.64762973103045    5.32848498584526
C         1.09931379567605   13.26806315117680    6.19318389557085
H         0.01876645933997   13.31948445933198    6.06437424998877
H         1.46199550727526   12.38383445338646    5.64777113283596
H         1.32564062556800   13.13481706273966    7.25131778837445
C         1.25335846111287   15.70454234642366    6.52924917860346
H         0.16718086833399   15.74226973828029    6.55959591821464
H         1.60660796004985   15.55944657991526    7.54910957905370
H         1.63533905677339   16.65895117776316    6.17465577710537
H         0.11854630111627   16.38270638471727    4.55008466947367
H        -0.54970120378245   16.70086950802800    2.24369149175467
H         0.30477373748385   15.24109116342358    0.50556330972684
C         1.99175609144026   13.13283038532107    0.67662717880741
C         3.52321483227408   13.05589811951147    0.66347413830928
H         3.94374242137309   14.05176539272481    0.52820898393901
H         3.86767074772800   12.63828782764344    1.60248498736253
H         3.86280699345651   12.41886153629306   -0.15280080231438
C         1.56156477946406   13.62124245453626   -0.71450859299992
H         1.91882704327729   14.63048676980096   -0.90768166691648
H         1.99120364142003   12.96296094121077   -1.46852748986695
H         0.48116979369716   13.59444991899837   -0.83174318947087
C         1.40381282331047   11.72965729854493    0.86681469102652
H         1.73300498242998   11.06928151897961    0.06498269643783
H         1.71618457224835   11.30631838972560    1.82241725165565
H         0.31683880701177   11.77536336859993    0.86045973567711

