127
CSD_code = SEYMEQ | q = 0 | S = 0 | Stoichiometry = C56H65FeN4P | MND = 4
Fe        9.19230933146137   11.16689859508739    1.30739618383559
P         9.38913835714337   13.74851385971438    0.19423820716820
N         7.44371246747156   12.22759310177813    1.59858437822770
N        10.12505551642771   12.05981736337832    2.77630869996882
N         8.41100325007344    9.45904939666745    2.49528633489789
H         8.64795863043365    9.70782048043108    3.45442743520735
N        10.07416843614234   12.31922559260778   -0.07684740491406
C         7.63795416847622   13.79147603021918   -0.22512125971393
C         7.05752899896590   14.43845550476084   -1.30790588691231
H         7.67693186225440   14.97070858454671   -2.01660008020000
C         5.69003467757449   14.40393349976458   -1.49534984318876
H         5.24183289947031   14.90904138415272   -2.33766714619393
C         4.89609260492400   13.71817101436067   -0.57975981511301
H         3.82249459797840   13.70698119240812   -0.70851801185710
C         5.45827087665173   13.03335489165037    0.46881088881262
H         4.83478131652184   12.47662605989973    1.15495552564008
C         6.85910179745370   13.00753360441859    0.66242163609131
C         6.71119260359716   11.99160237483165    2.75441414851129
C         6.21075607702045   13.05341239343085    3.54465980101483
C         5.51904605526256   12.77246647542245    4.70812758071103
H         5.15084922951800   13.59693980971279    5.30357605622650
C         5.28275070930691   11.47511838070528    5.14590916593888
C         5.76047298540056   10.43807760222397    4.36461754169324
H         5.58018998387528    9.41440142976398    4.66736924358800
C         6.44884378738811   10.68177966973937    3.18703715564531
C         6.94837246652345    9.52843399008668    2.37367452376092
H         6.46624024323082    8.60797399903517    2.72493050877637
H         6.69562981538170    9.67866983832167    1.31731074921490
C         4.53653353617417   11.22383159903269    6.42164777697856
H         3.54474232188855   11.67311868118717    6.37917437927490
H         5.06571301132188   11.66765128727919    7.26472663280390
H         4.42593479446626   10.15739758143638    6.60428780074287
C         6.41556202631872   14.48476365868549    3.15661205387304
H         5.65739040244672   14.80112359359581    2.43818767330656
H         7.39082831036207   14.61923566707842    2.69820002877026
H         6.34711327410609   15.12715479901782    4.03187027993887
C         9.71863727658356   14.25804409059914    1.88231471683416
C         9.61316253585790   15.62768489077155    2.12025486714012
H         9.20289657130233   16.26079377649751    1.34450185849697
C        10.01980993632924   16.18990667722663    3.30977142208841
H         9.92064566365701   17.25037864923435    3.48230240657294
C        10.60309308972966   15.36175750737851    4.26679919962442
H        10.98347447507282   15.78896956842838    5.18462218355494
C        10.69482329241401   14.01103122850154    4.06428361868789
H        11.14668452207962   13.38220951077438    4.81770958651899
C        10.18490792086018   13.38412874598871    2.89549986963103
C        10.86455789005131   11.25492862136335    3.64459575010690
C        12.17475656233388   10.89159766085751    3.27908671027216
C        12.90032362080305   10.03165709355987    4.08548688474088
H        13.90419899968903    9.75426004691739    3.79393096040953
C        12.36722935117144    9.51301662923695    5.25941347530676
C        11.09452590320649    9.91457837968128    5.63675178758573
H        10.67803638726702    9.55312760691318    6.56786216440571
C        10.34415861575848   10.78908247760167    4.86281118832857
C         9.01763309857568   11.27845948445940    5.36345413520537
H         8.39607005440944   10.46091038825020    5.72757788503868
H         8.48986840107584   11.81485254164226    4.58030602713265
H         9.17294879871681   11.96452688573531    6.19648508503150
C        13.16598114898346    8.57330456360220    6.11277964288147
H        13.81681573961851    9.13659924194086    6.78289103989740
H        13.79472044682498    7.93145362404486    5.49818507632064
H        12.51391884324617    7.95103495826673    6.72246861783269
C        12.76805784643325   11.44845467784163    2.02186716214537
H        11.98673401123699   11.59503795945296    1.27585897328319
H        13.54178997505466   10.79160906661817    1.63046524359844
H        13.21314449720450   12.42292214266782    2.22626483972130
C        10.30917912087659   15.05398388757363   -0.70889938614682
C         9.79871551780010   16.26821995566033   -1.14910486201980
H         8.75291539926346   16.50341122161321   -1.01817512974454
C        10.63382745069834   17.20011112725004   -1.74287452034242
H        10.22596273284696   18.13927635314664   -2.08848470703547
C        11.98534269184176   16.93942843466740   -1.88602330713441
H        12.63146802568969   17.67007172432815   -2.35020766132528
C        12.50902192511620   15.74592963906939   -1.41484327931172
H        13.56771629628241   15.54743248140467   -1.50251654972731
C        11.67512636808082   14.81539271330098   -0.82643106291644
H        12.06723416346634   13.88474063614272   -0.43864724780090
C         9.00991314792360    8.13457819493140    2.23692775125544
C         8.77258315765351    7.15834632845839    3.39777575682216
H         9.16391488830528    7.59292997338675    4.32146742784409
H         7.70438428132439    6.97609643041720    3.53482078738654
C         9.48069347464642    5.83359518308806    3.10754385508272
H         9.30219596057824    5.14134419157978    3.93793844612090
C         8.93023761612197    5.23020150415900    1.81562955674450
H         9.41982945295128    4.27527176066756    1.61436138700446
H         7.85919273530513    5.04073260425971    1.91789921394406
C         9.18014612610874    6.19679597859774    0.65843210110660
H         8.77868866983479    5.76853903691473   -0.26719733451443
C        10.68122722815535    6.43113925241937    0.50334600557223
H        11.18388562176771    5.48584383521784    0.28828655769360
H        10.87333574806525    7.10734825513241   -0.33276381584598
C        11.22710778368796    7.03290408866181    1.79526006984187
H        12.30150642157489    7.21773660977454    1.69249504450749
C        10.51794029010936    8.34928186861527    2.09880406033716
H        10.90468697596972    8.75459867542033    3.03075413842749
H        10.70259408363462    9.09205714547556    1.31212499827669
C         8.47048226272945    7.52115325080413    0.94381840842857
H         8.63341262632908    8.21839498546935    0.11978589505660
H         7.39793209381189    7.33867421274452    1.02275796954830
C        10.98284760500962    6.07123018881627    2.95770672001586
H        11.38700977757845    6.49736758059923    3.87819095452372
H        11.49099671034456    5.12256530736081    2.77300002525585
C         9.93686321442751   11.61753694275967   -1.35154538589296
C         8.59389106525518   10.86579461901045   -1.40655157511605
H         8.50133748083575   10.21796076487892   -0.51773522477798
H         7.77736036050561   11.58886572593497   -1.37566669675953
C         8.49502266424993   10.03408860972621   -2.68305769691750
H         7.53563857232349    9.50311636355415   -2.69750913624770
C         9.63931244535163    9.02412729605896   -2.74726311327924
H         9.57580279220707    8.32823142088462   -1.90769864254084
H         9.56464378395635    8.43817714772792   -3.66639638478430
C        10.97275412282587    9.76862344621335   -2.71358372232685
H        11.79660365780228    9.04566811308065   -2.74772509629279
C        11.06051636508018   10.69940913193675   -3.92187621878853
H        12.01818888746252   11.22442068271437   -3.91987821240791
H        10.99812737900831   10.11844297162650   -4.84491348070552
C         9.91486452804301   11.70868625403751   -3.86062311608582
H         9.97655872803035   12.38299721252330   -4.72233882816369
C        10.03050415122925   12.53010580371137   -2.57747948594371
H        10.98287721761408   13.06344412805127   -2.56580666705312
H         9.22878483566748   13.27128863714259   -2.53288338392173
C        11.07544863020126   10.58939540687347   -1.42963664756699
H        11.02275455749095    9.93397761799295   -0.55416934019244
H        12.03251042579711   11.11346389736842   -1.39319246312382
C         8.57657523561659   10.97196178395199   -3.88711267564235
H         7.75536057778464   11.69127276545558   -3.85237058548537
H         8.48410699120986   10.39954695719612   -4.81303980784091

