70
CSD_code = SEYRUL | q = 0 | S = 0 | Stoichiometry = C35H32P2Zr | MND = 13
C        -1.05673992533823    2.91545237855001    3.27241865129029
C        -0.22969422081717    0.18229737735709    3.16160501261634
C         0.53295195560604   -0.92691870518563    3.51826707694071
H         1.07189149257569   -0.92459420847329    4.45885779803840
C         0.59694029230804   -2.02867679970602    2.68537815825861
H         1.18889549812150   -2.88744812028841    2.96865123990296
C        -0.09496755334409   -2.02958333549259    1.48456743006133
H        -0.04272831906399   -2.88944548482214    0.83306161080393
C        -0.84815921144313   -0.92602503000075    1.11950982201642
H        -1.38580584393810   -0.92612912055329    0.18226683232408
C        -0.91094386304782    0.17682729080314    1.95205394058915
H        -1.48365473111739    1.05084911232584    1.67446750698268
C        -1.49087060372163    1.08238459598473    5.49742711074244
C        -1.98377633908922   -0.21550406811189    5.58704263075872
H        -1.64136132809720   -0.97568819355419    4.89992639427216
C        -2.92163601882741   -0.53806152913392    6.55259351323415
H        -3.30000059810345   -1.54858368658591    6.61031501729201
C        -3.37740318290610    0.42211815578541    7.43942287114979
H        -4.10931435353310    0.16377547703050    8.19019550361568
C        -2.89502094912126    1.71921960275730    7.35430961502238
H        -3.24998823653481    2.47805429527364    8.03703321062912
C        -1.96075256525525    2.04397104656682    6.39168838076433
H        -1.59421235656973    3.06203751586111    6.31183886796274
C        -1.18765193101629    5.33498233505769    4.99301160509994
C        -2.44521282674674    5.85240378075601    4.69604244817436
H        -2.81357519577491    5.79914945652517    3.68020509317999
C        -3.21122727335089    6.42908523102459    5.69205949117813
H        -4.18621787691771    6.83078558384365    5.45681867180444
C        -2.73281582095150    6.49026125747732    6.99156266589774
H        -3.33391450770612    6.94054059876850    7.76768776530060
C        -1.48196772312871    5.97591915293555    7.29500210609967
H        -1.10769197950754    6.02788230939566    8.30758178278349
C        -0.71266341322890    5.39609403368018    6.30124267153481
H         0.27945465694134    5.00063603524507    6.52319004800747
C        -0.44287303194331    5.53667826877120    2.31647782493755
C        -0.77067387687210    5.03185986949222    1.06440357283917
H        -0.94756817129255    3.96944492236944    0.96366899608539
C        -0.87435230671333    5.88156577891833   -0.02180894457115
H        -1.14007865246365    5.48807996299787   -0.99260137231926
C        -0.63283102951272    7.23698846449625    0.13272224335271
H        -0.71074833775552    7.90022043984192   -0.71642097928734
C        -0.28326422735845    7.74282497729766    1.37578348209314
H        -0.08608969395785    8.79888602020984    1.49233724515539
C        -0.18171369736475    6.89674625535366    2.46332314324249
H         0.09713642808244    7.27915276722276    3.43753621022108
C         2.49629232445054    3.29425171938426    7.42839818358488
H         2.53762511733388    4.22433595298249    7.98230695670889
C         3.59476497003267    2.65117861854929    6.82427687340016
H         4.62020033942717    3.00023167787572    6.85185137768649
C         3.15306334965661    1.40444394554984    6.33380462781238
H         3.78648196992410    0.61103913533602    5.95555133918288
C         1.77854621127230    1.28978016313557    6.61576860744221
H         1.18108635631712    0.39150601716024    6.51796920400863
C         1.36532660036846    2.46919677417830    7.27695969161753
H         0.39896497565366    2.61950497678241    7.74370172667482
C         3.01750026539245    1.65128126877538    3.19700521441802
H         2.94947962476273    0.57163969659420    3.28183458380267
C         2.16099861815454    2.46518739516238    2.41590004897638
H         1.32056809728408    2.11850064577447    1.82798379143203
C         2.71468832970180    3.75912857563496    2.36785652307788
H         2.33238478014354    4.59044814435677    1.78846869794962
C         3.91159173444435    3.75096195652000    3.10565447254182
H         4.60559055377723    4.57691818145424    3.19399695647816
C         4.10432275827570    2.45457210061671    3.61870057356140
H         5.00326016488762    2.10339568485364    4.11291025132346
P        -0.25934141637921    1.66121750559063    4.25960169116573
P        -0.20866117201015    4.41098347055034    3.73693227165526
Zr        2.00251640165595    3.17095600943006    4.85194600166220
H         2.41289785417152    4.84341533544798    5.19327364092594
H        -2.15075735891093    2.95480898023123    3.34172272683396

