45
CSD_code = SEYTOG | q = 0 | S = 0 | Stoichiometry = C18H12N6O6S2Zn | MND = 6
Zn        3.54901590630196    3.50094031989875    0.88311889545476
S         2.57620229246472    5.43444495219866    2.70851275544167
S         4.65117457066521    3.76244341843421   -1.71251854040890
C         4.37957944456437    5.23927988640095    2.94955033401805
C         6.48529033781329    5.61157343776600    3.63595701332899
H         7.16420009576596    6.26614987854907    4.16720341539452
C         6.93201746173354    4.44186972187102    3.03373498721428
H         7.97173411996769    4.16142121414641    3.06743545218270
C         5.96917177651805    3.67799386838616    2.37530914289512
C         6.17174778256752    2.45505185779578    1.58516221404213
C         7.42159357177548    1.91471365085819    1.31212652104699
H         8.31706038904319    2.36569931332990    1.70890156211345
C         7.49936006997400    0.79626322136503    0.49414403224301
H         8.45994621254813    0.36865391206045    0.24827452610671
C         6.33136817506468    0.24774928940846    0.00019530537733
H         6.34768087712220   -0.61376445735311   -0.64657015440610
C         5.12284752617148    0.85485859550917    0.32491924501613
H         4.18686837628169    0.45686472483976   -0.03599164466464
C         2.82920840707258    3.65201704883388   -1.84485461410596
C         0.74904289214309    3.74268325525682   -2.68675308014771
H         0.12274910955047    3.99417968724077   -3.53300136434953
C         0.20496460515808    3.25624585483533   -1.50445850655467
H        -0.85930423195830    3.13071124373398   -1.39284381083039
C         1.10690041039946    2.96706752143831   -0.48123334163046
C         0.80758465496679    2.52924216809390    0.88986690871272
C        -0.48060970198081    2.40958988146639    1.39442361017160
H        -1.33814477645248    2.60822562510022    0.77168480190358
C        -0.64415173055819    2.05609097339676    2.72652686122141
H        -1.63412545359277    1.97897968650800    3.15059939287632
C         0.47791377335394    1.81526636460703    3.49586897793766
H         0.39619150466050    1.54895328262041    4.53662170324942
C         1.73010977854633    1.95971337172652    2.90806648475095
H         2.63218661383976    1.77522441808048    3.47099011612478
N         4.70305233338075    4.08880015462725    2.39581996198693
N         5.22337961872903    6.01972327383019    3.58597759729506
N         5.04305074326088    1.92086295117564    1.09720986447580
N         2.40766434446331    3.13667038480323   -0.70831320148974
N         2.04816678761858    3.95398557317783   -2.85726358073369
N         1.89178019267900    2.29963459216700    1.64425142171014
O         2.07413008873803    4.39699250394102    3.58967082985841
O         2.14044257999951    6.76607301517268    2.98766814148533
O         2.43528401012420    5.04884153762814    1.28101068597250
O         4.80412944593389    4.33538148273387   -0.35112607982125
O         5.00828360516279    2.35630172405705   -1.73818986326816
O         5.21306140840027    4.57643561828336   -2.74348497919868

