75
CSD_code = SEYWIE | q = 0 | S = 0 | Stoichiometry = C29H43NSiZr | MND = 8
Zr        4.54384521873525    3.56305388197873    1.62435073459354
Si        4.24392569447217    0.67497224757670    2.46789288599782
C         5.24889046591980    1.31256746705889    0.98585851642905
C         4.58245492261276    1.90214457980774   -0.13711650007850
C         6.49171082018600    2.00992434093438    1.10054698460258
C         1.41798736258571    2.20141089975606   -2.22129379423188
C         2.84601542493412    2.44416297833631   -1.75716381174173
C         3.71495041134513    3.35081700041328   -2.41309989785734
C         5.41076481921441    2.92171761710490   -0.73714234314507
C         4.97042499621740    3.59203261130792   -1.87816526369376
H         5.63317244522716    4.30397818591671   -2.35182731112078
C         7.55820316304407    1.87871516047228    2.01243557078178
H         7.51471854627988    1.13152219084268    2.79208437231102
C         6.61337368477831    2.99705726199706    0.04553886735695
C         3.32604145307417    4.10342366798793   -3.67507146132449
C         7.76757915704662    3.77803748415440   -0.07275598483132
H         7.86441709160724    4.49111654171653   -0.88253392657232
C         8.78410290778607    3.61579471400775    0.84262030780833
H         9.68231314848589    4.21079175716136    0.76576707512403
C         3.28728567545978    1.73024420759765   -0.65509657745526
H         2.64801753740881    0.98344564036536   -0.20541142832490
C         8.67259768956621    2.67257776904802    1.87498160915016
H         9.49326424224948    2.56638668382767    2.57063760912853
C         4.43056498842734    3.98166651380615   -4.73697286384467
H         5.31954850245630    4.54302954414270   -4.46453083336792
H         4.06972962251681    4.37011888902808   -5.68767764208436
H         4.71211562286325    2.93972155309334   -4.87362005278627
C         3.12786745893649    5.58833348210334   -3.33602104565426
H         4.03843002481062    6.00938225107826   -2.91638323260955
H         2.33265917664232    5.71997006723163   -2.60647740407928
H         2.87109095545639    6.14973572045713   -4.23249615887491
N         3.61053573586500    2.21932274466979    2.88010150807875
C         2.45677940001933    2.57980063347420    3.67354363830122
C         5.31640309062699   -0.11850450161890    3.85213600971611
H         4.68863112889664   -0.65254299231639    4.55791537066465
H         5.86470224398716    0.63593006989253    4.40876522419215
H         6.02892897410205   -0.83090748154664    3.45051125893256
C         1.24608392344473    2.76647842312338    2.73394488835519
H         1.53537203430841    3.43283751420131    1.91199858169819
H         0.39630073943193    3.18891699740562    3.26635040933576
H         0.95321490535731    1.80430138942631    2.31960366359558
C         3.01795920679666   -0.71992063921742    1.94108171890443
H         2.84851706026999   -1.40703190360839    2.76363045218784
H         3.40225425282421   -1.30046771530790    1.10876315368754
H         2.05018690525864   -0.32418262820860    1.64834776964971
C         2.74867580745884    3.92098603665609    4.38212830302730
H         2.88650010992367    4.71473233987152    3.63674197592313
H         3.66065933921227    3.82420955516499    4.97309333002544
H         1.92742334354554    4.18986908413952    5.04461211871059
C         0.44802915629682    2.27433147346776   -1.03072475422343
H         0.62044217416148    3.18172145425846   -0.45390351098193
H         0.55553354943008    1.42113149680731   -0.36786595715033
H        -0.57784470962658    2.28657491880598   -1.39452076855716
C         2.12545424029571    1.52409210321124    4.73710822284304
H         2.98139351115728    1.38549024010145    5.39158437369728
H         1.89843300398667    0.57494663659768    4.26189342011432
H         1.26937982975381    1.83437143818897    5.33172666793054
C         1.32525463568847    0.80472183058130   -2.85179969894219
H         1.99185841975627    0.71860484038872   -3.70577720747157
H         0.30777653107914    0.60654678792569   -3.18355807561892
H         1.60814522711688    0.04180431551857   -2.13103680772418
C         3.32438580415762    5.19179148029142    0.72266222838904
H         4.02150522664702    5.86826724601930    0.19435761784422
H         2.73197602693772    5.83599771349423    1.39167677697132
H         2.62909150137433    4.81212489367995   -0.04453615889920
C         5.84856858796516    4.76829726801001    2.95510479802546
H         5.39425146251707    5.65402165285610    3.42499802306364
H         6.72692245681246    5.12690925393170    2.39190746223984
H         6.23044578046095    4.12912411591398    3.77011209183019
C         2.04361426899419    3.52504806041706   -4.28333964590366
H         1.65935552066742    4.21822985525350   -5.03539027633237
H         2.28133124047876    2.58943216987396   -4.79231516825961
C         0.98074225542349    3.26941409198636   -3.23010466096978
H         0.05342574621173    2.94969527818730   -3.71136713480209
H         0.76793712049566    4.19802954786188   -2.69681823160246

