64
CSD_code = SEYYON | q = 0 | S = 0 | Stoichiometry = C24H32I2N5Rh | MND = 6
Rh        3.87857183065842   -0.72603006211579    9.18150999071889
I         2.54951241066805   -0.55141192395297    6.87366459168089
I         4.87338663694306   -0.95684112328830   11.65498207824849
C        -0.48817432906112   -5.87083908975449    9.61789015858917
H        -0.93826696413034   -4.91309027624377    9.86426282718912
H        -1.17744636504795   -6.66683124838361    9.89061769432104
H        -0.32206095839072   -5.90686737623185    8.54313071149835
C         0.58129979493596   -5.97922788283834   11.88084955910506
H         1.51482730155410   -6.08739406859678   12.42911689155831
H        -0.09226194431298   -6.77981990556638   12.17804175997705
H         0.13416765935928   -5.02573077476968   12.14667779459931
C         0.83905899877279   -6.03491223136071   10.37002446258793
C         1.45886244321302   -7.38576542183337   10.01503130080618
H         1.61626586160701   -7.47562939738689    8.94253243750826
H         0.78628203692202   -8.18331844161543   10.32394465041942
H         2.40794060792237   -7.52648656136111   10.52774722589082
C         1.72690033285183   -4.86291561524339    9.99740305080628
C         2.93743685285188   -4.97487815811775    9.33056604942929
H         3.32810040625488   -5.93558024200580    9.03914069451002
C         3.67300452846715   -3.83057082542276    9.02902923103218
H         4.61948432563878   -3.93072095083543    8.51320089479237
C         3.17863114264390   -2.59636233517320    9.39329956402716
C         1.94664377910224   -2.59825875845465   10.05854924387299
N         1.24773279580534   -3.67098447332892   10.35393265531340
N         1.44596488727451   -1.34619937638544   10.43005966882710
C         2.20974155291232   -0.31631758189880   10.07789016463821
C         0.22841273067732   -1.23542287312252   11.19972098021968
H         0.11683625080681   -2.15932735776699   11.77056392727643
H        -0.62965502365027   -1.13899012832813   10.52426603255063
C         0.36729697009390   -0.01229707089216   12.09039272881654
H         1.19786498740955   -0.16267676571037   12.78396127301387
H        -0.54197197863297    0.15751278022371   12.66546196465706
C         0.65251081146387    1.19584369764590   11.20666768388056
H        -0.21760891142918    1.40953606814218   10.57317835918768
H         0.86097620409259    2.06692245133023   11.83373492369260
N         1.81998470546473    0.93717682232063   10.37330366360023
C         2.53047276435292    2.01089719162720    9.83339364246039
C         1.93699603484479    3.27329710103715    9.79982920057202
H         0.93085511244279    3.43196171472186   10.14590253871065
C         2.65744139997729    4.31799043925839    9.26504321495266
H         2.22368091804113    5.30473323173506    9.20423473573611
C         3.94107989158569    4.08418209057223    8.80988733181892
H         4.51086063056346    4.90049463861441    8.40556537475733
C         4.47389485922139    2.80054537157789    8.86375801434953
N         3.75723434142755    1.77689501623914    9.34761006467431
C         5.88498654830699    2.54232601412984    8.35567842121045
C         5.77981937825576    1.80273285292976    7.01682051704478
H         5.24007913063021    0.86785841881056    7.13434792258824
H         6.77248466125171    1.58303138340796    6.62926305264530
H         5.24714337334635    2.40856160050925    6.28642690475628
C         6.65424849837012    1.70536445781756    9.38002214075980
H         6.75113858353433    2.24592585225466   10.31931595241843
H         7.65036216598192    1.47446883778679    9.00844718193745
H         6.13968281399563    0.77109186048807    9.57951205536258
C         6.67661513922532    3.83542167909560    8.12731283816733
H         6.27223471543234    4.41782121128414    7.30266525247825
H         7.70203243194745    3.57594373705375    7.87171998068480
H         6.70103218387410    4.44811502134139    9.02599533887428
N         5.53471496761654   -1.28197642158136    8.33272501371521
C         6.48264704103907   -1.73993690224714    7.86978406311746
C         7.66090734344364   -2.30052696126523    7.28665770621122
H         8.36038538245297   -1.50368536193325    7.03353253475175
H         7.39624635877845   -2.84762237854567    6.38135820213051
H         8.13207095834460   -2.98000521839520    7.99744391427412

