113
CSD_code = SEYYIH | q = 1 | S = 0 | Stoichiometry = C44H60CuN8(1+) | MND = 4
C         9.86360462189658    8.61763331139032   11.28171212706868
C        11.11640046799882   10.71092031468389   10.89176487962116
H        10.86535933531325   11.69896141727644   11.28132941436638
H        11.42538649613465   10.81999815813320    9.84585693992868
C        12.21116965642539   10.04898255467644   11.70709117391658
H        13.15689589488005   10.56844962541040   11.56266489552188
H        11.95605431573376   10.07768610258822   12.76808916705838
C        12.32596945336636    8.59827301136297   11.25768459597682
H        12.62891355075753    8.55175096860338   10.20529592011582
H        13.06527746524970    8.06993686134614   11.86211803379458
C        10.99157306881047    6.62069485956713   11.82823380550145
C        11.99279458456394    5.74547389053922   11.42270468043177
H        12.79933176707677    6.07040612062465   10.78714391440984
C        11.90092853874170    4.42644964275987   11.82735029419978
H        12.64076278309450    3.70714114565901   11.51188932777249
C        10.86216888121902    4.04974310989481   12.65639902251196
H        10.80341398699193    3.03467942719276   13.00970419181257
C         9.91330529969258    4.99183282238636   13.04850562767207
C         8.86209715763381    4.59502526731296   14.07016131284049
C         9.58663034307207    4.09045023259289   15.32978596711779
H        10.26753848053349    4.85024814050320   15.70667545360499
H        10.15586135592987    3.18612807419029   15.13628262385183
H         8.85734226475351    3.86911721143538   16.10510625324700
C         7.98448976455818    3.47377219866625   13.50172919173293
H         7.21640437698421    3.20520069584222   14.22338816149094
H         8.57016555677832    2.58416156641396   13.28698382535449
H         7.50677917364930    3.79274836561030   12.58090655683844
C         7.98400285742357    5.77423453430421   14.47892545531604
H         7.22864264560521    5.44124119006806   15.18769676798885
H         7.48674897827073    6.21269601393899   13.61563389746368
H         8.59107175115810    6.53925051889267   14.95389184407967
C         8.70483926926478   10.59774008992500   10.66161639251929
C         7.64500749057214    9.99092323328603    9.99803371258429
H         7.70776046295840    8.96563796326053    9.67370955646207
C         6.52339533747748   10.76268595853304    9.74966542547828
H         5.68029914170189   10.33784866118500    9.22513558468208
C         6.50038403911451   12.08643632733747   10.15004080010832
H         5.63528101633312   12.69694932980167    9.95114276209652
C         7.62297804449411   12.61983704113626   10.78072626856888
C         7.69940718649960   14.08174958283454   11.17103266896178
C         6.55835558711614   14.42836696310993   12.13463802316451
H         5.58769079361205   14.21468567176547   11.69517608530732
H         6.59530194933537   15.48695768259043   12.37933077525662
H         6.65339185085070   13.86194039788952   13.05779609155838
C         7.57293790645207   14.92874702267975    9.89681337544262
H         8.35209799828221   14.66351136014807    9.18558223999278
H         7.67679277060329   15.98228793108268   10.14352883589235
H         6.60774397252792   14.78348825856393    9.41896015895360
C         9.03934401893507   14.38892859960742   11.84203530424203
H         9.17904303815842   13.77087332739794   12.72482391544779
H         9.07251551147117   15.43350661085227   12.14001400188007
H         9.85918789198371   14.19762617327651   11.15534621722329
C         6.72847101881369    6.48082141054316   11.13390958695330
C         5.54578880594716    4.43743671512578   10.40676810986068
H         5.85938819972662    3.40587694997448   10.57603788251176
H         5.17466025406134    4.51948562187054    9.37891666371131
C         4.48251069051049    4.87186845819118   11.39726946150921
H         4.81516904317117    4.66366516894949   12.41611279491832
H         3.55398396953343    4.33295414168732   11.21736209461576
C         4.27015667694790    6.37071240833708   11.23192221290446
H         3.89603128639220    6.58808418298697   10.22489640761385
H         3.54947816870201    6.73925375758818   11.96441212504853
C         5.53787039531993    8.31006606323369   12.03433485151205
C         4.47420400842361    9.17226483788745   11.78606062636574
H         3.66386583366310    8.89282702742346   11.13403628574348
C         4.50963300884738   10.42056871129188   12.37525425410729
H         3.72044604751351   11.13299381756245   12.19020166286539
C         5.55341795105467   10.73503593908596   13.22654998926657
H         5.55608740015626   11.68917412786778   13.72097900148225
C         6.56837355297414    9.80821830076098   13.45015071516977
C         7.58324648005012   10.03623992093492   14.55883469856128
C         7.03395571657636    9.25865618180185   15.76751347807961
H         6.95345064742316    8.20143050472337   15.53205909144123
H         6.04811415622513    9.62783897079329   16.04288306749124
H         7.69634428459848    9.38170648327914   16.62068898308591
C         7.72070973135610   11.51593250238182   14.93251860988688
H         8.54038970743279   11.63023811898694   15.63814749562758
H         6.82483198028869   11.90245577183827   15.41131870756542
H         7.94642245870280   12.11170073944425   14.05051847495463
C         8.97846935460391    9.52427709358331   14.20556995363798
H         9.60126854010305    9.51303954622404   15.09760820940980
H         9.43274169530573   10.18975174587744   13.47682856400269
H         8.93773642258387    8.51855112981213   13.79509596710366
C         7.92296577513858    4.73762773012417   10.03602925420975
C         8.91341734916921    5.53426179596703    9.47358874811834
H         8.79590067135730    6.60292493161192    9.40773798014427
C        10.04058120146137    4.89753396420374    8.98389253950521
H        10.83165592781629    5.47542902364824    8.52918124553581
C        10.13580238955398    3.51953533744551    9.05466787029844
H        11.00751200217112    3.01639211326481    8.67043316403665
C         9.07460259437331    2.79882440314198    9.59967104523805
C         9.07931497365737    1.28534420156178    9.65377340424833
C        10.24812461268870    0.81355730779072   10.52718782646140
H        10.12885480387087    1.17622353088233   11.54535463587735
H        11.19998745968824    1.17026753380629   10.14244223196705
H        10.27444869922848   -0.27285580935683   10.55056264419625
C         9.24061953972795    0.73612318346383    8.23016396793574
H        10.19481983627165    1.02430440688774    7.79750886841757
H         8.44520277662282    1.10730443294318    7.58771677830882
H         9.18949696013310   -0.34951932127073    8.24760076833349
C         7.76645331716866    0.76750107016384   10.24359955386713
H         7.78911878343976   -0.31759152377301   10.29905123664086
H         6.92816688612141    1.06581143355749    9.61996171731649
H         7.61177649370236    1.16617451269990   11.24218872349989
Cu        8.28869423301495    7.51248979773900   11.83073327216490
N         9.96656328723687    6.24428310294711   12.59605123432996
N        11.02581682201195    7.96630103578943   11.43908694195964
N         9.90071675399098    9.90186976591838   10.94018572260695
N         8.68768945820037   11.87027401322964   11.02503628965485
N         6.56747191627827    8.63215431612722   12.81524314858375
N         5.54926622641060    7.03238719459750   11.45492166764630
N         6.72839135557886    5.28456869863520   10.55045240763922
N         8.00510925491193    3.41725592603963   10.07566156584353

