57
CSD_code = SEZBUV | q = 0 | S = 0 | Stoichiometry = C24H22O10W | MND = 6
W         1.33288890375810    0.76268736228187    7.02042753538294
C        -5.34557660731994   -0.51897833365995   -2.29524129814036
H        -6.05492162860186   -1.15204586333550   -2.80754471571235
O        -2.14709882626698    0.20705988422084    1.19380631425767
O        -2.18930423003411   -1.86441021170017    0.13332045818947
O        -0.91630739532626    3.16122476817361    6.13061245568074
O        -2.81624559184462    3.62163740721858    7.23027302254144
C        -0.31837546745844    0.82957723479013    4.35918372036188
H        -0.86406746875801    0.07708565887286    4.91618492197477
C        -3.71825285566930   -0.20569337939034   -0.55824898693074
C        -1.46267256467923   -2.48976484528415    1.17018550370759
H        -0.89191986712567   -3.28910387670711    0.69546287293508
H        -2.16322186772593   -2.92801379248959    1.90036502167081
C        -1.19727134976277    1.90329121324018    3.69666477465274
H        -0.71418769782141    2.87388907363649    3.66458822554840
C        -3.51960900402309    1.09895998783239   -0.98152276466883
H        -2.80366331542002    1.71624804944573   -0.46313975376195
C        -2.94667773469891   -0.78088676261399    0.60515053708725
H        -3.66002715815147   -1.16256121330914    1.37813057206717
C         0.91771756075029    1.30110416103339    4.99137940924434
C        -3.03987349852841    2.56078098238314    5.18693195987392
H        -4.08728744731206    2.61999479485358    5.43870961751812
C        -4.63324646178469   -1.01463770086701   -1.21869627856160
H        -4.77571967787014   -2.03290033597740   -0.88949756139145
C        -1.41771507454747   -0.29250293773370    2.30485138811785
H        -2.13820858248621   -0.64073611316196    3.06906124202165
C        -2.61728678049699    1.97013483833316    4.06560117116013
H        -3.32931149301933    1.52679627595639    3.38189120998573
C        -0.55202823932247   -1.48062654174016    1.87013149149110
H         0.20261915363778   -1.13032655383054    1.16442591311737
H        -0.06292091950439   -1.93037838674621    2.73333680344259
C        -4.23863635866572    1.59287547449730   -2.05670216980090
H        -4.08244201921292    2.61061231092461   -2.38307492902515
C        -2.12779102564944    3.13175908165632    6.19277670047236
C         2.72438661935948    2.76731893375373    4.57275785329832
H         2.96150773544191    3.48151359679909    3.78433114923613
H         3.55080066304335    2.06064625896218    4.68572535000946
H         2.56110685362604    3.29278243486085    5.51736157240258
O         1.54953487684080    2.09942082724559    4.16386567306451
C        -2.05251629097918    4.15351126964859    8.30175391121909
H        -2.75370052547760    4.67437304731039    8.94856055249916
H        -1.29047666508481    4.83843697887983    7.92444819615967
H        -1.55904147508310    3.34663545715388    8.84915257820391
C        -0.58545495883882    0.83679421746590    2.86339843481681
H         0.23140749883255    1.13534374638084    2.21910368653682
C        -5.15111643760859    0.78682254927101   -2.71458026767789
H        -5.70964149955055    1.17374538106747   -3.55424180514764
O        -1.72486779222018    0.60114558431923    7.69999127641696
C        -0.62582268556945    0.70025700768957    7.40023785564471
O         1.10625975393145   -2.20900114769746    6.03076611387770
O         1.82479191667811   -0.03049959756622   10.02326959976046
C         1.64682060698790    0.25206304359449    8.92916427885555
O         1.38098020349273    3.72340283949840    8.07200851622687
C         1.38173084567586    2.67112185195733    7.62980758898954
C         3.32082868586745    0.71746229480695    6.80886003327542
O         4.45964180015046    0.60712448783979    6.84642193954662
C         1.21708286139196   -1.13647277407760    6.41205152830120

