50
CSD_code = SEZBOP | q = 0 | S = 0 | Stoichiometry = C19H20O10W | MND = 6
W         4.09183438480914    3.22306975310048   10.61637462012398
O         4.25538904363188   -3.00755693528642   13.43190840058733
O         5.28992643350502   -1.68096700665754   14.94076935415239
O         5.65561912076789    5.90859476339968   10.15881683321008
O         2.73163551539809    4.53902632434613   13.12401033805496
O         6.80637837032128    2.07612218424121   11.75423567189108
O         2.34729696351062    0.64727828602145   11.04673479100170
C         4.11875685252827   -1.70820235869387   12.91905251433054
H         3.06565187339746   -1.53940456273759   12.69295943826517
H         4.70769068720776   -1.57880090974831   11.99962664926571
C         6.01921659018453    1.45575224915242   14.33110768854469
H         7.02560139327702    1.81680678136621   14.16351175470357
O         5.13909751031665    1.98959169364769    7.92717297463493
O         1.90999771078296    4.52816225386443    8.76480735584414
C         5.60877649444625    0.25933226199690   13.53015800258013
H         6.38659456606794   -0.14019770013265   12.88910477016339
C         5.06374255482897    1.61625330533089   13.13323154659510
H         4.02587577953890    1.78650339301122   13.39528234175008
C         5.30360088199906   -2.98705019403040   14.37975643473494
C         7.49727942814352    2.61916269768575   10.65009783740162
H         8.55870669887954    2.50046659714011   10.86550948908600
H         7.25862188871376    3.67791399167296   10.52003546714239
H         7.24496597946052    2.07752821847229    9.73472781196402
C         4.83473542862217    2.41395777031939    8.94414828834176
C         5.00017310555142   -4.00353301432741   15.47651812770241
H         4.96958309996811   -4.99994615674362   15.04821740759097
H         4.03555335832849   -3.77526602863830   15.92011877404556
H         5.76860930429238   -3.94971604467405   16.24062853522685
C         5.50456799766603    1.71901556398099   15.66868199388383
H         4.51334271100287    1.34666358431489   15.89041763930657
C         4.65183608322247   -0.79203586546727   14.04599868202339
H         3.81954968590715   -0.31917784071694   14.58243049771713
C         3.25378686874548    4.06225889759437   12.22929653131295
C         5.51733355631048    2.27255157895714   11.90221110735332
C         5.15488640271220    4.90036297957262   10.35338350836735
C         2.69587729393683    4.05399899206700    9.44273229630949
C         6.65999355400990   -3.27416363733373   13.72186056925481
H         6.65936834850850   -4.28162796732573   13.31644946462057
H         7.44605875801797   -3.17722417991636   14.46449994339126
H         6.84893470739073   -2.57024463795546   12.91555101344572
C         2.97684418024078    1.58409864589762   10.87320974908719
O         7.86861433705437    3.52221501026398   17.67400932459261
O         8.21945567954979    2.96700584832926   15.53175131742262
C         7.50535248288152    2.96101974829549   16.50820695729308
C         6.16014842772293    2.38179247738748   16.62837166948357
H         5.70789938250933    2.52932883097492   17.59740149194561
C         9.15099034442269    4.12741137639844   17.70302894955596
H         9.27941139264400    4.52174633372447   18.70759808481700
H         9.20864325400496    4.93028773098456   16.96477787679679
H         9.92419353305838    3.38953491685879   17.47810811305202

