26
CSD_code = SEZGEK | q = -1 | S = 0 | Stoichiometry = C10H8N2O3ReS2(1-) | MND = 5
Re        0.50274110812601    4.11025224873926    7.36094202234651
O         1.85672140430551    3.13832866580957    7.49975071628318
S        -0.77803966283573    3.59617925740173    9.24160178792314
C        -0.27675343773138    4.93136314870574   10.26940478598839
C         0.38612360155595    6.02001674939299    9.67413507154021
N         0.59769176366112    5.93911951504632    8.29592562338138
C         0.97066611537773    7.01764995890901    7.56122859088008
O         1.18399510192497    8.15261614691935    7.95933605181461
C         1.08507877105815    6.68279163921857    6.07800500086833
H         0.57974832984939    7.45073118216901    5.48065225358299
H         2.14951396353875    6.69868360925603    5.80443535020421
N         0.51283576001870    5.38165269395035    5.82660361357375
C         0.13388885141066    5.11805828783315    4.56527620386054
O         0.23606131601702    5.89178608058676    3.62137587630627
C        -0.45880727175460    3.72886067254435    4.37730755205797
H         0.29541755339473    3.07669602381617    3.93251391083831
H        -1.32375840359485    3.77626123821518    3.71578805700475
S        -0.97622220006374    2.98972410231891    5.95826863941009
C        -0.55473710070006    4.91904240764195   11.62714015462749
H        -1.07418496350351    4.06871550605788   12.04267129369903
C        -0.16036134305279    5.97831452412207   12.42247613426477
H        -0.37107853134371    5.96677771728757   13.48271643614561
C         0.51045708102249    7.04771424798103   11.85214202362384
H         0.83034348471721    7.87637455236783   12.46872665552270
C         0.78166503388500    7.07469787836215   10.49640110196129
H         1.29709367471703    7.91589194534711   10.06477509229072

