38
CSD_code = SEZLAK | q = -1 | S = 0 | Stoichiometry = C16H11Br3ClN2O3PtS(1-) | MND = 4
Pt        0.50760193897231    4.33362316604749    0.71400932306920
Br       -0.94516015371748    3.11781000916587    2.29531242165263
Br        0.11287792727334    6.42556192645588    1.76488560352871
Br        2.03602837814919    5.31198717677600   -0.95808420198382
Cl        5.67732931383162   -1.19465617317417    1.72352829570607
S         1.74687128850143    0.29290785429490   -0.87288286962015
O        -2.25069324544742    0.53909068847645   -4.25048249264498
O         8.62134048705054    0.82533877426103    5.41010066165847
O         7.85512090879809    2.77315212865251    5.93299087375667
N         0.80664245980852    2.59767951199147   -0.18016187809604
N         7.81720143289025    1.73947470539708    5.28061270647194
C        -0.00400049653472    2.16254971767359   -1.18323714445402
C        -1.10630414076800    2.83832431778267   -1.70851268759798
C        -1.81889317433102    2.25539256019749   -2.72516816317750
C        -1.45935184259463    0.99883390047004   -3.24279234343717
C        -0.36644888403470    0.31366335803922   -2.73036007962604
C         0.34855149905466    0.90666459696605   -1.70330746442223
C         1.77245126961506    1.75502252138707    0.11493607180539
C         2.74105760873164    1.98611170854284    1.11217191417543
C         3.73330452804361    1.11030683802448    1.41709742001852
C         4.75009763776804    1.28708103391365    2.40262816768993
C         5.71666530891589    0.27936459502931    2.62931061265349
C         6.71406622106910    0.42102509995561    3.56289491204879
C         6.78552483525280    1.59202195750140    4.31877345434270
C         5.84709299348052    2.60927405211767    4.12622460284775
C         4.85824076887432    2.45210300568503    3.18987264067149
C        -1.94921151982346   -0.70876135038271   -4.82328078951631
H        -1.38269932704250    3.80702656222049   -1.30911593345452
H        -2.67597817543372    2.74800586862099   -3.15469212549470
H        -0.06108269812943   -0.65064521212859   -3.10110789775359
H         2.63998824159841    2.93386278308914    1.63444095153758
H         3.76340836574611    0.18229877614729    0.85949252675989
H         7.44581720586714   -0.35549105723074    3.72471835573157
H         5.91991114997547    3.50636890449501    4.72114404200251
H         4.14305355935999    3.24526862416943    3.04918759461019
H        -2.69932071971059   -0.86711736323055   -5.59665558879586
H        -0.95350361952402   -0.71208278222808   -5.27909060926257
H        -2.01379733153593   -1.51584278517328   -4.08600088340140

