65
CSD_code = SEZNER | q = 0 | S = 0 | Stoichiometry = C24H32Br2N4NiO2 | MND = 6
Ni        5.05550338161674    7.40600487628871    0.00000102320951
Br        8.38024064157119    3.86143781672517    5.54929336588482
O         6.06065171086323    7.68618748918192    1.55306360698539
N         4.41776209628603    5.69432835497913    0.72150325330010
N         2.89364079414416    8.09511398882019    1.15253500203791
C         6.05371202653848    5.49692700301425    2.49832617313774
C         6.51923264794067    6.84464865291329    2.38906423247185
C         7.54402197544638    7.24138207053461    3.29529506432089
H         7.89743735478710    8.26032875708577    3.23808185600071
C         8.08237166425588    6.37535530340430    4.20600481272386
H         8.86689859614960    6.69912523651092    4.87360481480742
C         7.61475324498874    5.06091119969802    4.27401533645904
C         6.61189475148787    4.62878353040711    3.44549452166394
H         6.24814929807336    3.61331954419796    3.51257140579487
C         4.95820488503945    5.05977014467178    1.69832293785162
H         4.52832108290603    4.09766006510494    1.99960621009341
C         3.17351343459879    5.14874450356744    0.22348092739971
H         3.16113946576373    4.05632610268084    0.34566868369926
H         3.07812391679143    5.39429705459590   -0.83416089353543
C         1.98391626559397    5.74074113246672    0.99344004049769
H         1.07747251578901    5.22622288351333    0.66625539812915
H         2.11148324717853    5.54068073034286    2.05943035590754
C         1.77659145400670    7.23598302700595    0.75120542654897
H         1.61553187731974    7.38809087615416   -0.31905063325992
H         0.85587606247221    7.54464564589332    1.28060201763989
C         3.05795613725822    8.08862013720948    2.60206556569350
H         2.13601598571614    8.40689460399470    3.11366947936192
H         3.86333867830895    8.76918167291085    2.87116636681076
H         3.33080238124875    7.09677592069584    2.95419375284269
C         2.59784937007234    9.46231794619774    0.73623896662806
H         2.45667759604840    9.50340728312406   -0.34249430903960
H         3.43276990067616   10.10810737097890    1.00342836707005
H         1.68572389248484    9.84447803115114    1.22195793769097
Br        1.73076616111228   10.95059143023577   -5.54927955943817
O         4.05034056925160    7.12582225371914   -1.55305637738657
N         5.69324925203324    9.11767623334255   -0.72150610722745
N         7.21735324014342    6.71687342984498   -1.15253575816722
C         4.05729269929509    9.31508391290637   -2.49832001241559
C         3.59176317174049    7.96736484698691   -2.38905562065069
C         2.56696795297454    7.57063949577455   -3.29528417392863
H         2.21354238796072    6.55169582137044   -3.23807125771012
C         2.02862133473169    8.43667038885840   -4.20599222982373
H         1.24408900091158    8.11290848915148   -4.87359009937843
C         2.49624897682500    9.75111146980042   -4.27400442783303
C         3.49911336433746   10.18323153940706   -3.44548659177641
H         3.86286827321277   11.19869245524279   -3.51256219977008
C         5.15280577644846    9.75223550873617   -1.69832353034720
H         5.58269689651025   10.71434068651646   -1.99961128539685
C         6.93750438119592    9.66325401919550   -0.22349309187165
H         6.94989131592728   10.75567157607522   -0.34569055119978
H         7.03289309085796    9.41771006465640    0.83414999309560
C         8.12709638679250    9.07124216568593   -0.99345052477498
H         9.03354771108355    9.58575228567150   -0.66627133300560
H         7.99953011858512    9.27130018542708   -2.05944069792077
C         8.33440908628957    7.57599793879505   -0.75120948271352
H         8.49546699179159    7.42389223331701    0.31904694220581
H         9.25512222701223    7.26732353163824   -1.28060492489720
C         7.05302961596462    6.72336969515853   -2.60206562898752
H         7.97496149028182    6.40508725515078   -3.11367580268281
H         6.24763935004246    6.04281712612790   -2.87116103046769
H         6.78018954455406    7.71521637492640   -2.95419137315170
C         7.51313839720937    5.34966741272882   -0.73624144023445
H         7.65431472713219    5.30857580351862    0.34249158443827
H         6.67821120910375    4.70388602766440   -1.00342915377123
H         8.42525696526450    4.96749938634814   -1.22196531963824

