39
CSD_code = SEZQOD | q = 0 | S = 0 | Stoichiometry = C16H16Cl2N2O2Ru | MND = 6
Ru        9.12507808820196    1.05911890857535   15.29901218561960
Cl        6.78840345334467    1.01957857809790   14.99668241540826
Cl        9.43852264503402   -0.28178046914068   13.35763468321212
C         9.09854924630643    2.51914084026448   14.14266112698000
O         8.95540269882263    3.35057598185957   13.37924437588720
C        10.96201097699478    1.02722416425229   15.54746853745209
O        12.09791034266954    0.99372991661176   15.67200594319623
N         8.76431937851756   -0.56142435092058   16.47651123046650
N         8.61677930283941    1.97784165099340   17.05005018693000
C         8.87065123403659   -1.82576098293518   16.09320513112432
C         8.33813501447823   -2.89145587379671   16.80607541676681
C         7.66223485012036   -2.61127226914530   18.00092370755465
C         7.56369104010394   -1.28564998422160   18.39660725579698
C         8.11171283334236   -0.27203869840845   17.61610393879212
C         8.03799930472689    1.15386254005830   17.94175726281252
C         7.42402519000958    1.66525989767080   19.08220421245548
C         7.38447160935913    3.03013189758242   19.31514867539775
C         8.00217923769512    3.87285510283685   18.37851116263048
C         8.59939501435184    3.28688428957097   17.27399411174179
C         7.05933135355741   -3.70424907483667   18.81834295145340
C         6.70538237849692    3.58718659551221   20.52064919801802
C         8.47972306461275   -4.28479686012627   16.29298122404293
C         8.00986517758146    5.35528971817946   18.54925298155269
H         9.38735625561637   -1.99267746831311   15.15345847399467
H         7.03880947604403   -1.04472185810985   19.30719099719807
H         6.95687911318370    0.99637184260033   19.78691656870635
H         9.08530761773446    3.90398266527688   16.52742585887069
H         7.82405291765830   -4.42070260208886   19.11579071467214
H         6.31501515026973   -4.24303229979545   18.23360346514763
H         6.58265543610279   -3.30814335797166   19.71075107281138
H         5.90279201156000    4.26018432260554   20.22230876376517
H         7.40899584995209    4.16171441323007   21.12178406592781
H         6.28619213769814    2.79436445342904   21.13362770987633
H         8.48232882276934    5.62896550734980   19.49173851463927
H         6.99038374009205    5.73826117325407   18.56714673989742
H         8.54659311962465    5.83448427923744   17.73582148199253
H         7.49838124130558   -4.72771142661862   16.12756627579821
H         9.00649028109904   -4.90782027231559   17.01514928035002
H         9.02679339408926   -4.29237089030479   15.35489210105986

