77
CSD_code = SEZTEW | q = 1 | S = 0 | Stoichiometry = C30H38CuN4S4(1+) | MND = 4
Cu        0.00006853995812    2.36961491771236    5.09886681192584
S         1.22616326691209    3.90134804114795    6.53313689636988
S         3.59999977159736    3.36205418511965    4.65199240199758
N         1.62189722478207    1.46518648705794    4.18910880266321
N         2.52018988224108    0.23384489760267    2.60756194085690
C         1.42859523654319    0.43983984193545    3.37813777563237
C         3.45795917644807    1.15761764069988    2.96025185878384
C         2.89009858689153    1.92112614129030    3.94489631810984
C         3.77455623917828    2.91469809446941    6.41611249175051
C         2.44767542033746    2.65133415296232    7.09883824609804
C         0.18729429382334   -0.31969726620047    3.29548216118195
C        -0.37712134448743   -0.83929818652284    4.46511418200913
C        -1.62164792480048   -1.45561828645648    4.39303362074944
C        -2.28397883134242   -1.57067815782243    3.18398114856560
C        -1.70235799978408   -1.08788134092783    2.02212745514035
C        -0.47068246156643   -0.46219033598864    2.07696931948144
C         0.31118903535547    4.42084408238563    8.07203596316020
C        -0.23579636602582    3.21476931360444    8.81524845469489
C         1.25830123720167    5.23687070859925    8.93852801235986
C        -0.82245868364876    5.28687440827885    7.53695297434916
H         2.62428593448801   -0.48103795642294    1.90442063005381
H         4.42430188632628    1.22080196832869    2.50779340842358
H        -2.05760848154941   -1.87320139225208    5.28863552781847
H        -3.24811830510829   -2.05335051357535    3.14392861961394
H        -2.21004145572646   -1.19570491080946    1.07643597642280
H        -0.02315767617562   -0.06245099634910    1.17883244219329
H         4.44027401436166    2.05451820993605    6.49033206966252
H         4.26292367360972    3.79220525997599    6.83901524432741
H         2.56183392927527    2.73481338730549    8.17790092489949
H         2.06425780632361    1.66281672734343    6.84701330035552
H        -0.84120505652726    3.55265520244031    9.65447777051198
H         0.56128147887120    2.58470241994594    9.20492593587542
H        -0.86322516404731    2.62254940703181    8.15551874658623
H         0.72000112881944    5.63581882979952    9.79573958885561
H         1.66770649465066    6.06848087642938    8.37099743848856
H         2.08367851862086    4.63330798225448    9.31072986570824
H        -1.46913854859016    4.71267409467524    6.87644320314524
H        -0.42346558327067    6.12813899620530    6.97571028745367
H        -1.41994311029484    5.67120701444206    8.36019362055369
S        -1.22645276943512    3.90158327922313    3.66533277863466
N        -1.62185116563000    1.46520679483339    6.00840624496195
C         0.37712264493638   -0.83930203470994    5.73238683344705
C        -2.44743307532140    2.65145607830659    3.09844096073707
C        -0.31178234736761    4.42044999098070    2.12583120132973
C        -1.42858883825681    0.43983877735087    6.81935627145613
C        -2.89005629636174    1.92115875248546    6.25256978907010
C        -0.18730424672009   -0.31972278350099    6.90202159408279
C         1.62165538039321   -1.45560988318452    5.80446390280393
C        -3.77417738848798    2.91486412511513    3.78135644296850
H        -2.56165183521334    2.73485005278740    2.01933663579915
H        -2.06414749932200    1.66293218830760    3.35041470422020
C         0.23583910257105    3.21489052261704    1.38215911443133
C        -1.25818547083605    5.23687190669725    1.25890327970042
C         0.82197811344313    5.28652039200425    2.66058014616417
N        -2.52019538929629    0.23385680344810    7.58991136298744
S        -3.59985106452688    3.36217504310179    5.54554075632810
C        -3.45795995181675    1.15762161338043    7.23717658245723
C         0.47066224773399   -0.46223254981347    8.12053630025292
C         2.28398028167704   -1.57067947843585    7.01351900829358
H         2.05760029178081   -1.87322274954214    4.90886687320482
H        -4.43978799609752    2.05460938346003    3.70706355240256
H        -4.26267342592870    3.79229595290262    3.35843944770980
H         0.84131178716925    3.55270528332469    0.54288586879211
H        -0.56121732373137    2.58481794738258    0.99252375490008
H         0.86321310692779    2.62267020376537    2.04193711670523
H        -0.71985241550508    5.63585253788079    0.40167032191380
H        -1.66760487491945    6.06845548111516    1.82646505066596
H        -2.08354973791985    4.63332866903735    0.88670730974731
H         1.46876761838803    4.71241338937067    3.32105471299839
H         0.42310831634645    6.12787612874148    3.22176165204340
H         1.41945439841677    5.67080827313303    1.83728894695358
H        -2.62430497896797   -0.48102073253276    8.29305835063162
H        -4.42430475155890    1.22081863077205    7.68962962210998
C         1.70234404417873   -1.08791023083151    8.17537617901469
H         0.02316633529103   -0.06244058579413    9.01866356381780
H         3.24810819190576   -2.05337475269758    7.05357636064940
H         2.21003519839182   -1.19571636613402    9.12106596877994

