57
CSD_code = SEZVEA | q = 0 | S = 0 | Stoichiometry = C27H25ClN2OPd | MND = 4
Pd       -1.59227908557175    8.48701655809731    6.78455725586129
Cl        0.16245518536507    9.25920867107818    5.62977851005942
O        -1.22223433276900    9.65396775574089    8.35630319668586
N        -3.32848698327764    7.86330831165438    7.56226358741511
N        -2.13124250356395    7.33026692906527    5.15979937159289
H        -2.19455324450299    8.09399931608118    4.48029856727492
C        -1.60269675950200    9.23256383832067    9.51301947356729
C        -2.89384109294125    8.68220717770276    9.79085654206284
C        -3.26893934453990    8.45799209590611   11.12444128386791
H        -4.23307866179851    8.01603372885721   11.33003756152203
C        -2.41669291675862    8.72114069051913   12.16731291192273
H        -2.72439185829210    8.52488014313610   13.18310216432210
C        -1.13387771854128    9.19709806061653   11.90611203540356
H        -0.44320864952248    9.34854850095681   12.72321238310319
C        -0.71311706641808    9.43310809423546   10.61710151100093
C         0.66608833702766    9.86157115658314   10.33224058425010
C         1.27966571687440   10.84673491165407   11.10069781605656
H         0.72342455144064   11.32517693854574   11.89444015963679
C         2.58018041261764   11.23617591665680   10.83772180875251
H         3.04086257263464   12.00886565486554   11.43712074033861
C         3.28782749879234   10.64541031629233    9.80496562380317
H         4.30121483742500   10.95578079674221    9.59505411507527
C         2.68866903008302    9.65955529075355    9.03793434884032
H         3.23218913174948    9.19849965584650    8.22655571936033
C         1.39010768328017    9.26811267560446    9.29917214269631
H         0.93171343906284    8.49562504486857    8.68986650855160
C        -3.81681210126640    8.30167515794652    8.73796936921866
C        -5.21087335270102    8.31751348610411    8.93641738554749
H        -5.61271584719349    8.74665148867501    9.83901866592261
C        -6.05005389120786    7.81731724919541    7.96970785545450
H        -7.12000617869752    7.83138597078372    8.11127483658944
C        -5.50735776114966    7.28409159329205    6.80175331420648
H        -6.13655027004499    6.84974829177129    6.04149953973045
C        -4.13808752714431    7.34575913887555    6.62829862082529
C        -3.47007970119247    6.75969520963602    5.40149086248878
H        -3.36449055067772    5.67826525381192    5.55313398118910
H        -4.11982062631367    6.89782943367162    4.52744636575967
C        -1.15837217591524    6.39141306005850    4.67224432103937
C        -0.58183507372267    5.45579886112907    5.53703704170323
C         0.31231929133306    4.53054600910055    5.01413635863153
H         0.75953081515972    3.80596416373454    5.67918727361297
C         0.66117887791432    4.52520047865298    3.67395821053858
C         0.11532999298057    5.49687521093750    2.84633372934015
H         0.40533423949749    5.52689318532104    1.80617921468624
C        -0.78769211684440    6.43132642376594    3.32356340773360
C        -0.83541720251900    5.47356445600404    7.01802606069331
H        -1.87518449423873    5.25597183798417    7.26919267390057
H        -0.57363677830867    6.47447290474360    7.42816094446072
H        -0.20815518234993    4.73441572935941    7.50998954549797
C         1.61680900681701    3.51336102345366    3.12134615941850
H         1.10992821702212    2.86858648771304    2.40378823703028
H         2.02961274311677    2.89333288551056    3.91244624676492
H         2.43499745171169    4.00926490387343    2.60244212224539
C        -1.31595981864995    7.50097997605170    2.41214749915863
H        -0.97955100590586    8.47881686087485    2.76160450593501
H        -2.40554034196509    7.49286731320098    2.35797703085175
H        -0.93150681638797    7.35716772474170    1.40626269632443

