62
CSD_code = SEZXEA | q = -1 | S = 0 | Stoichiometry = C20H27B10N4Ni(1-) | MND = 7
N         1.97905816364728    1.23735615523620    5.39685726126120
N         2.75677052812998    0.89725592523577    4.36739285004817
N         3.61820887307051    2.62106292269718    6.67484736871377
N         4.64414663326518    2.46629502822142    5.84248130298322
Ni        4.70798485273959    0.79599007325913    4.52521773566195
B         2.54592303573898    1.51554764454831    6.81089417278582
B         6.51148068900733    1.05375969557846    3.25259924204028
B         7.95068922194827    0.13504228479367    3.68369442134872
B         7.59743405535872   -1.17156636336350    4.81257773344724
B         4.97583416449086   -1.26113892005457    3.80730561282415
B         5.40174201729084    0.05166772384976    2.47545232467588
B         7.15676680645639   -0.20986223921108    2.16095033880502
B         7.75290120375133   -1.56507174170299    3.10565534638960
B         6.45885046463545   -2.25488843378430    4.06272247756072
B         6.04454936639238   -1.59410347216284    2.44796478202879
C         6.64521224943055    0.34381613852130    4.80034724097745
C         5.95032842980181   -1.00853632052518    5.09126656410695
C         1.96486104560107    0.64788610306533    3.33174066561581
C         0.63252482905078    0.81992150085257    3.70083930556663
C         0.69197128840416    1.19051295667262    5.02851175953531
C         5.44340539287029    3.51319989741555    5.99167655554122
C         4.92747813112742    4.37008765634322    6.96290321393212
C         3.76194035587926    3.75417437238433    7.37388739100809
C         2.81543326688999   -1.09795249668207    7.00488151694463
C         3.40039036516358   -2.24537271715765    7.51109215038728
C         4.45596731010891   -2.15246785074979    8.40226381820360
C         4.91636387561609   -0.90197838051939    8.77955877396870
C         4.32508647427014    0.23860002702728    8.26520543193079
C         3.26407029992493    0.17308388043669    7.36200114992084
H         1.98663112976960   -1.19195980181032    6.31678878808258
H         3.03699205772934   -3.21812358036357    7.20687144496409
H         4.92028768122267   -3.04715312539217    8.79630333393191
H         5.74310405482785   -0.81857269547337    9.47428130098002
H         4.69560792339868    1.20707634555087    8.57592634670051
C         1.00065674263313    1.37825209718196    8.94945619196742
C        -0.01209955349702    1.84392341930019    9.77160324032660
C        -0.70136691534802    2.99693322850960    9.44042018169869
C        -0.36688548542134    3.67594149837334    8.28049493014465
C         0.64665290267669    3.20069796219563    7.46801941209667
C         1.35802606403742    2.04059446213261    7.77881946014570
H         1.53023263581502    0.47590365333831    9.22193933420154
H        -0.26592426771787    1.30544806311413   10.67584430011132
H        -1.49351132386260    3.36478732631613   10.07976630289796
H        -0.90013013915216    4.57906006399357    8.01115094238261
H         0.89550554759777    3.74254633057844    6.56500805819669
H         6.88530768275382    0.94462185331320    5.68208605765431
H         5.64144426361477   -1.20787800412658    6.11300895105217
H         6.71212234628105    2.22348439221930    3.15201121549053
H         8.96842253812377    0.71911673096397    3.86063665607868
H         8.27821880111490   -1.40913252197437    5.75133367190629
H         3.90700257064792   -1.74807283242467    3.96173540435684
H         4.61335307182718    0.33669052881735    1.63434372072118
H         7.60426932645315    0.05508543566569    1.09496699330093
H         8.64555317208172   -2.23278675116386    2.70198768012489
H         6.31982681616128   -3.36827293272344    4.43913472501171
H         2.37021537444771    0.35639664827189    2.38308107628328
H         5.72758937636451   -2.33819251388130    1.57866128979952
H        -0.24205374300492    0.69042340865319    3.09434454625577
H        -0.09886858198875    1.41098353744898    5.71734120361116
H         6.33884359193031    3.61677964762310    5.40870275618398
H         5.34068317590916    5.29536969569147    7.31428421675065
H         3.04931777238923    4.05390738001182    8.11645775828242

