35
CSD_code = SEZZIH | q = 0 | S = 0 | Stoichiometry = C8H21ClN2O2Pd | MND = 4
Pd        7.73047897257357   11.54338126733703    1.81995379259462
Cl        6.77358385172885   12.35026866591609    3.75861081414472
N         9.60149602990237   11.36133722821875    2.74283552921696
N         5.93652761920773   11.64266099088449    0.81493478695166
O         8.42464321116901   10.67526022720984    0.11504207888337
C         7.38761009310098   10.40169280101735   -0.73888272476275
H         6.96115052586479    9.39125432122335   -0.56405958494877
H         7.75952892858864   10.41053824919977   -1.78118886972883
C        10.66466503750493   11.11445113574472    1.76508867625446
H        11.60131792777133   10.86032679512068    2.27668216648550
H        10.81760153494255   12.00343628436508    1.15482055987346
H        10.36878346199324   10.30343608156442    1.10084176687261
C         9.94309960746934   12.55972716728378    3.52554014422592
H        11.00546365382711   12.53180969536853    3.79983095765768
H         9.35318544277072   12.56227364089385    4.44622122465688
C         6.28193887463713   11.46012319365084   -0.60883136798284
H         6.68773230466375   12.40904064126937   -0.97586149248883
H         5.38412976016344   11.20213793950638   -1.19153736582697
C         9.60610101097289   13.86656481696678    2.76309535807023
H        10.51152950596880   14.43858815063331    2.54403627501608
H         9.11280555194514   13.59757487836981    1.79156194931448
C         9.46539761026474   10.18813519042124    3.61083387512613
H         9.20626730512797    9.31924677257588    2.99694262772244
H         8.67396420333275   10.35960986099120    4.34498227497236
H        10.40317936997281    9.98033762118590    4.14306831029790
C         5.19586097612654   12.89465981160115    0.97685629715753
H         4.29581716520836   12.89540394432533    0.34857545419026
H         5.83191526283072   13.73821970367095    0.69459099674065
H         4.90211976845904   13.01949731780035    2.01944973850925
C         5.12341265072017   10.52733022253891    1.30771219947169
H         4.87787769376296   10.69621405967725    2.35930657452859
H         5.68043919770258    9.58939765396391    1.22099969534284
H         4.19032253400283   10.44363625277334    0.73370130307568
O         8.78604080153710   14.71805137580615    3.50633927619144
H         7.96411255419001   14.22927604090690    3.70800670218903

