31
CSD_code = SIBBAG | q = 0 | S = 0 | Stoichiometry = C6H16N6NiS2 | MND = 6
Ni        2.58602184776795    6.25127882096868    2.93891436803522
S         5.02081900126705    7.85266465507667    6.23430666503759
S         1.52654047502724    9.92807614937674    0.79031686579550
N         3.98761003140768    7.02930820307287    3.81356093399075
N         1.85217785806521    7.90149789353639    2.63434783232980
N         1.16631080352047    5.45326102386804    1.65363027008789
N         3.76240055768647    6.03564731249674    0.82570972592443
N         1.33911821284688    5.86052230250319    4.98963449467570
N         3.27498876691727    4.37052742303725    3.60276644120069
C         4.35854911929621    7.41089411614930    4.86729456817408
C         1.78237808637563    8.76192327446521    1.82946603790518
C         1.43439428841194    5.71126452636443    0.23532754242544
C         2.87984602327784    5.32939174583894   -0.09383822500615
C         2.07037830155293    4.80263999486579    5.67923974344194
C         2.47305810559567    3.73916497708126    4.65240928350885
H         1.08656510124160    4.44945851579991    1.80563258026810
H         0.27750419993075    5.87813415142272    1.91018851247043
H         3.77872518667572    7.02855285909804    0.59641533053068
H         4.71568587440849    5.69434979899203    0.76285118113760
H         1.38613910318294    6.73275830363602    5.50732729868205
H         0.35963468282375    5.61332860941942    4.88309407991059
H         3.44568498043924    3.71777282468732    2.84193629418285
H         4.18390733936459    4.62214941789588    3.99228025526209
H         0.74551040066105    5.15636805103204   -0.41605819640190
H         1.30252659109985    6.78035585269774    0.05401842559113
H         3.07745325974744    5.55676407659629   -1.15186114064980
H         3.01600858049235    4.25195525895175    0.05082523620170
H         2.97627549404727    5.23622369155466    6.10906392375943
H         1.49321861823990    4.33089546497431    6.48720467038187
H         1.56987776700931    3.31549574876212    4.20201679524819
H         3.01989134161686    2.92967495577813    5.15487820589948

