60
CSD_code = SIBLUN | q = 1 | S = 0 | Stoichiometry = C27H23N6OS2Zn(1+) | MND = 6
Zn        7.34529034686267    0.87659275320541   -3.83118886989251
S         9.24097385698623    1.92885041574899   -5.19811167793388
S         5.52480754777153    2.63045097710727   -4.13215824258442
O         8.21225260916476   -3.96065248616071   -1.64778048432877
N         6.88295498041631    0.02531607776100   -5.79189171843467
N         8.64648985263929   -0.60768087278150   -3.61008433401716
N         8.39317542780690   -1.67346236705979   -2.92991322452084
N         6.18945115130230   -1.14241146656532   -2.06132939114327
N         5.99667975872692   -0.00286355510492   -2.65052964904950
N         7.84273052587376    2.19075753142759   -2.16351394459209
C         6.13252334627285   -1.07210030724022   -5.83618891149527
H         5.51028885475524   -1.25753870003048   -4.97209465547774
C         6.12988526797117   -1.94098303101243   -6.91083193858068
H         5.50635175408697   -2.81947542619603   -6.89707018883123
C         6.95333803920016   -1.65828795527802   -7.99009945078924
H         6.99479101996543   -2.31815507344229   -8.84247795451824
C         7.72242522316407   -0.50783940389426   -7.95469247302785
H         8.36623563175441   -0.24808867362663   -8.78008188307670
C         7.65361534195183    0.31870245824680   -6.83935594662442
C         8.43331832309892    1.59445685936334   -6.80617755297338
H         7.76733189679694    2.44672704619339   -6.95813487582812
H         9.20429143261749    1.60098237164429   -7.57586353440214
C        10.25012927150614    0.45646141616543   -5.07012661244873
C        11.44921683476232    0.43752064722292   -5.76189807362924
H        11.73753356807561    1.30238093572468   -6.33971065123623
C        12.26947324727532   -0.67604497602983   -5.70364115022449
H        13.20134843815278   -0.68430192502865   -6.24634210441421
C        11.89038100357260   -1.77157549070732   -4.93922867681789
H        12.52809883890203   -2.64001816100869   -4.88679037550161
C        10.70267752821180   -1.75623729857759   -4.24036529829754
H        10.38895026594066   -2.59491307506243   -3.63763239672840
C         9.85827376428989   -0.63922014255524   -4.29037849679000
C         7.28402080156845   -1.87139438130201   -2.22809596709421
C         7.29935430380130   -3.18722328808378   -1.50294422177217
C         6.11806914575125   -3.44761295278460   -0.61191852247611
H         6.23862353886691   -4.40885037352978   -0.12062162625858
H         5.20651724689503   -3.44875388973993   -1.20440531421104
H         6.03746355454808   -2.65912039162513    0.13217011640371
C         4.80040874206238    0.62187271698198   -2.32655240417226
C         3.90539324580899    0.07917927635254   -1.39455727647995
H         4.16541659243020   -0.86277038555820   -0.93850693620882
C         2.73289593970210    0.72801191274741   -1.07451677326513
H         2.05862078169588    0.28817158033724   -0.35631572916913
C         2.41524892140072    1.93887346864401   -1.67457057053432
H         1.49561248813030    2.44601484667394   -1.43039845786417
C         3.28350277752969    2.49077415349297   -2.59984243129302
H         3.04406252862126    3.42321254512209   -3.08786882839937
C         4.46780572431569    1.84805020082865   -2.91891087611615
C         6.33980228768139    3.87600895146962   -3.06982353358725
H         6.98858085140566    4.42982583186652   -3.75269434112486
H         5.56937866882794    4.54722506019038   -2.69114490619538
C         7.15060544347273    3.30806685834292   -1.94720163515163
C         7.19544239297477    3.97432640822472   -0.72749118956577
H         6.61511476223213    4.87158473199702   -0.58123435904730
C         7.99668942813660    3.47520854745173    0.28457665282545
H         8.04592600068520    3.97412479235443    1.23981086441855
C         8.73250289587243    2.32437461587503    0.04405037773297
H         9.37535309723076    1.90220217467336    0.79859935873877
C         8.61909766993948    1.71750131439103   -1.19210886559539
H         9.17020521853377    0.81596657216040   -1.41949786632633

