39
CSD_code = SIBMEW | q = 0 | S = 0 | Stoichiometry = C9H19N7S3Zn | MND = 5
Zn        3.01260325736161    0.96848841689697    2.96714490306329
S         4.43637668445495    2.49285053110732    4.31471513004915
S        -0.05068080084556    2.76758380757647    1.72790944899252
S         2.01542114287094    7.11995153717666    3.72598724115679
C         3.20572441461733    3.49827190272063    3.70449414095600
N         2.27967916551334    2.82458398003432    2.95254482786365
C         1.20681313292370    3.50894295008743    2.53496463321421
N         1.14850699029924    4.83647230081404    2.80597404513863
H         0.35224247969842    5.37702868065914    2.49048742028526
C         2.15726396356777    5.50098550448642    3.50659701042373
N         3.17521018297591    4.77169728183690    3.97448182489766
N         3.42526262636071   -1.30633923830945    3.05742697966854
C         4.86294701138778   -1.43104277005679    2.82970909306347
H         5.15577925420739   -2.48263983464048    2.69712367158456
H         5.36492510449103   -1.03517073917281    3.71352555910043
C         5.33483536841934   -0.62270281360446    1.61831897253751
H         6.42819009664759   -0.69355632308232    1.56640908957010
H         4.93455632728352   -1.04795882419485    0.69516988799725
N         4.87600631353131    0.75777669649473    1.73320874052320
C         3.05301956003404   -1.79387129817356    4.38633560274797
H         3.72345743240914   -2.59703462453969    4.71507889028730
H         2.04037190066765   -2.19952943539557    4.33479268124107
C         3.05154193766300   -0.66153652794877    5.40967655974737
H         2.75142303491133   -1.05766959717490    6.38728597628225
H         4.04915111074971   -0.22688738502098    5.49734459466395
N         2.15782574716874    0.38866953013212    4.92962798334662
C         2.62211138829316   -1.94609580992292    2.01622926173695
H         2.40169867469230   -2.99171587517242    2.26324566038147
H         3.17789866183641   -1.93623452425766    1.07987742561320
C         1.32579846879849   -1.16050119396387    1.80027948810396
H         0.74418070692626   -1.63276085969944    0.99981891610945
H         0.72443793615887   -1.16957870063295    2.71044550167590
N         1.67384470292506    0.21946033292942    1.50057189048182
H         4.93584131243172    1.23080224404502    0.83639527610379
H         5.48491663934566    1.27119723365288    2.37152062690569
H         2.27326916838750    1.21831801534099    5.50710855313777
H         1.18701649055489    0.09651222237074    5.01304538580008
H         2.01485965485074    0.28934994943778    0.54625897636096
H         0.86017275543760    0.86428325716639    1.55116812918882

