95
CSD_code = SIBQEB | q = 0 | S = 0 | Stoichiometry = C44H43N2OP3RuSi | MND = 6
C         7.40579480391660    8.86766837500638    2.88452379867143
H         6.71205332129001    8.02023667316552    2.82116233891452
C         9.33246215407917   10.15001472546025    4.69360562830894
C        10.15057718099946    7.49568476524600    2.09348362824057
H        10.67727880925389    7.14070483025287    1.21370922247977
H         9.73998669454378    6.63064267141278    2.60590298734676
H        10.88353530650180    7.95884256095349    2.74614484864176
C         7.96851209127173    8.10361033823324   -0.01598936407091
H         8.69229779245690    8.05643052208524   -0.82249626664750
H         7.15967385478933    8.75471423718894   -0.33277194735561
H         7.55934669568626    7.10687755437695    0.11696700517943
C         9.55459303133427   10.44972544855630    1.25390618693202
H        10.07620019136338   10.47056676520778    0.30177007055352
H        10.26677305778267   10.72546992451002    2.02494405558553
H         8.78286363626338   11.21686126076742    1.22832880876473
C         3.81979519554245    9.80545503512579    3.48406034247122
H         3.36640348170170   10.15649011999911    2.57806677633862
C         3.27039968736508    9.24221661938053    4.61657119484548
H         2.23790227985917    9.03348514067046    4.80942583238382
C         4.35247273645244    8.99591917283828    5.46587916987023
H         4.34739412767822    8.57082669481847    6.45303911613556
C         7.72369069988728    6.25747788798278    5.08662817723987
C         6.45102679204893    6.05743523250613    4.55117331987265
H         5.65874855744508    6.75512637305090    4.79540155056823
C         6.19188485444408    4.97577176805629    3.73353198245097
H         5.20126892167747    4.83196407373650    3.32580454992856
C         7.20445595062468    4.07744678056569    3.43385108828803
H         7.00689464670613    3.23426248080054    2.78854346253886
C         8.46706312263315    4.26252385611603    3.96913726540212
H         9.25657122940640    3.55936898734213    3.74550359463429
C         8.72979935075976    5.34574998330018    4.79150088975323
H         9.71829846106237    5.47222884062787    5.20854179550530
C         6.83970442517934    7.38346395131461    7.47659723372722
C         6.49377521180411    6.08252991087306    7.82898776148384
H         6.87877270407582    5.24731150383645    7.26089764651273
C         5.65591024800473    5.86090510727438    8.90710104211091
H         5.38531903096334    4.84982802830849    9.17550340445271
C         5.16264919435669    6.92710961774748    9.64289149576923
H         4.50428761637222    6.74609882275815   10.47998806309207
C         5.51434323748818    8.22352471190060    9.30367298820204
H         5.13194657675111    9.05876201966535    9.87216027196355
C         6.34941900720890    8.44650653773956    8.22488957321547
H         6.62934705524209    9.45402765730299    7.93588436139176
C         9.57668119635909    7.49368538138121    6.84808540205728
C        10.69421173283075    7.58697252953203    6.01987149889012
H        10.54702649856981    7.78327340620132    4.96632664038187
C        11.96513897540912    7.43820685475514    6.53944495483840
H        12.82487820178515    7.50911194081071    5.88949057339167
C        12.13530137527461    7.20786610211377    7.89599460597234
H        13.12874126599151    7.09840367295005    8.30576675785503
C        11.03003931807855    7.12523973153883    8.72547654142133
H        11.16018850629441    6.95093920590220    9.78413367844381
C         9.75359153246441    7.26725149840466    8.20846922849234
H         8.89838709561544    7.20896543701428    8.86660283667667
C         8.40513475378622   11.91864810799614    7.61330104640887
C         9.30936142604049   10.91952133518417    7.94983658738620
H         9.29019656955992    9.98641224490847    7.39636258225479
C        10.22292428973946   11.11096029423713    8.97037036956978
H        10.92068994201027   10.32435048060031    9.21859352286317
C        10.23949104686920   12.30984564750768    9.66246387866927
H        10.95233509196566   12.46692734471580   10.45873580959545
C         9.34248061632850   13.31358468624593    9.32957773489130
H         9.35787229568579   14.25071151503964    9.86740225249700
C         8.42923317089205   13.12412869241348    8.30949474939072
H         7.73708835879534   13.91257761454102    8.05121196934653
C         7.35812648251489   13.20874815790648    5.37871446575972
C         8.25403679036942   13.30148100329860    4.31876533387898
H         8.80647161886450   12.42020766088598    4.01662722085232
C         8.42534813016719   14.49464341864135    3.64255485878393
H         9.12369564941909   14.55104148504833    2.82050219254550
C         7.69604887430234   15.61189452830771    4.01438746097278
H         7.82188979453964   16.54442744869697    3.48395450273959
C         6.79741089313879   15.52748113405284    5.06431736429035
H         6.22092246856337   16.39455352795605    5.35435469919853
C         6.62860269818586   14.33605218400348    5.74709507025050
H         5.91268103974445   14.28543280899121    6.55632687178806
C         5.61408837577872   11.82874321234503    7.06473459914572
C         5.42394259180497   11.72364059348257    8.43800971008132
H         6.27404377561850   11.57712406450548    9.09102259986684
C         4.15012543605657   11.82114560685497    8.97024351792158
H         4.00905176095946   11.74914930563046   10.03958769696736
C         3.05785624789471   12.01302154954988    8.14111810529751
H         2.06531655593454   12.08327572234865    8.56137238692679
C         3.24062593251365   12.12094041402271    6.77133131805573
H         2.39191850732478   12.27646198604086    6.12098813190667
C         4.51030209482400   12.02773292142273    6.23705231989477
H         4.66318622802302   12.12976811435891    5.16854116712512
N         5.14466716542220    9.86860947351726    3.67995465415158
N         5.47326773520169    9.38233807875114    4.87744289426519
O        10.45644826225167   10.41225185020862    4.59666241013432
P         7.94860089893529    7.78265614365331    6.07602772041349
P         7.22865137475790   11.59378949164418    6.24670385326712
P         6.58915298980997   10.44361866265744    2.81439230633845
Ru        7.55692751846743    9.74400793496475    4.87641742886653
Si        8.78480582705685    8.73461022472812    1.59365896071316

