126
CSD_code = SIBRAY | q = 0 | S = 0 | Stoichiometry = C52H68MoN4O | MND = 4
Mo        3.79439284171296    7.68767810443687    4.88668122912277
C         1.87159487150275    7.38994761959609    4.98484754928872
H         1.31297180807110    8.33513669563248    4.98179060293720
C         0.90148730527660    6.25169182053214    5.09186717462828
C         1.62976619347507    4.92663514030025    5.33381914099897
H         2.24932843567856    4.69035697157593    4.47392775320609
H         0.91652682019562    4.11807978770664    5.48428880148672
H         2.28763060290239    5.00342912586526    6.19834853036508
C         0.10007222090221    6.12405710545522    3.77851187269267
H        -0.33269778351658    7.07544376869887    3.48201703287301
H        -0.70145753444254    5.39782395567512    3.89912058052728
H         0.76186961962257    5.78781171234314    2.98465551899392
C        -0.05386267765355    6.59287319717162    6.23565714947648
C        -0.95215984292749    7.64824570695479    6.09631301826996
H        -0.98748732608999    8.20903880578752    5.17538949226590
C        -1.80537305609213    8.00843007620252    7.12205209266218
H        -2.49307807343067    8.83081920084159    6.98258747740260
C        -1.78174136314061    7.32159651206592    8.32335953120647
H        -2.44632320115464    7.60139296926903    9.12745683874093
C        -0.89469033307866    6.27305278047517    8.47866368770427
H        -0.86160472290756    5.72625930654129    9.41002992546466
C        -0.04129210029701    5.91305664389215    7.44844052372801
H         0.63532737490270    5.09017965928371    7.61144101509249
O         3.95374256295253    9.41488405185235    4.45040950113214
C         4.20330675340065   10.60113758159225    3.93095592337198
C         3.15811776719130   11.40945572526660    3.44736471873142
N         1.82624700195195   10.94948130750096    3.54355584740527
C         1.12631052100274   10.34785168729336    2.52614929343477
C         1.79299867621307    9.99110042113933    1.23497487816402
H         2.62569642387895   10.68887661417285    1.07277479974484
C         2.36296814886539    8.56954373843776    1.30883015134414
H         3.00505868833207    8.44795250280477    2.19553440815083
H         2.95000379246195    8.34813221269651    0.42029206524804
H         1.55216518557926    7.84806708675718    1.38347529692438
C         0.82397587669914   10.11101543591531    0.05952208443237
H         0.01431426208652    9.39328532296011    0.15972086071130
H         1.34199605350704    9.91600944213520   -0.87686226748052
H         0.39629287667184   11.10977881259279    0.01891784739852
C        -0.15439533694522   10.14707396913107    2.96848499209705
H        -0.95510912982691    9.69708305814495    2.41490723770162
C        -0.23683917120753   10.65177208104151    4.28167964456293
H        -1.11098485260207   10.66037617089325    4.90211022198951
C         0.99645600630915   11.14386633763260    4.61988145500710
C         1.47595499594482   11.76614531348027    5.89400260268227
H         2.40403281797766   12.31493939589997    5.68362736505955
C         1.77487437894630   10.68341151659779    6.93846876705246
H         0.87458840395540   10.11416729035091    7.16130331551205
H         2.13891036058276   11.13228944287011    7.86008671227568
H         2.53487742046445    9.98662848403221    6.57540293330667
C         0.44379578023607   12.75532999975297    6.43636727124654
H         0.20342767856847   13.50732780379966    5.68805884671829
H         0.83179484722582   13.25539506677888    7.32086997007843
H        -0.47000911311149   12.23510970803123    6.70983036541445
C         3.43394329995292   12.64972504217970    2.89170702922103
H         2.61195821284335   13.24914979108569    2.52994826462006
C         4.73690694288295   13.10799204882675    2.80681802812497
H         4.94404759946448   14.06977341341992    2.36498747756824
C         5.77335229881160   12.33418247790751    3.29785918061114
H         6.79446402532968   12.68051510237148    3.23738403832619
C         5.52170756938016   11.09218098826203    3.86436162851271
N         6.56567046607752   10.33612839072559    4.43346699499311
C         7.25485344935285   10.72752928764183    5.56009801113624
C         6.87072107818124   11.94920675941949    6.33746398283825
H         6.65845254988753   12.76698442525568    5.63739557120726
C         5.59804898587818   11.68087824175363    7.15071555226427
H         4.78248715109477   11.36012423314446    6.50395085105378
H         5.28483959157407   12.58427411875860    7.67002108425223
H         5.77413499467898   10.89822085622776    7.88492055302384
C         8.00479457592111   12.39048908756701    7.25968048183631
H         8.18700497096729   11.63867792442670    8.02285747206674
H         7.74164545070643   13.32290426941512    7.75406298165234
H         8.92140613545055   12.54307152700944    6.69479001753441
C         8.19714623119329    9.76990690881891    5.82050849137458
H         8.89217425875226    9.76421846736312    6.63567306021381
C         8.09205943580252    8.77911160507004    4.82343663095654
H         8.69953973434137    7.89969167828093    4.75674988446814
C         7.07190910155213    9.13531556612443    3.97870136166828
C         6.60920824743077    8.46870044767368    2.71390523278568
H         5.52820815944290    8.21036742651894    2.79725735063266
C         6.79649760759937    9.38467759241766    1.49737858935382
H         6.17922964777800   10.27805689659156    1.56349543627425
H         6.52880709829896    8.85318611460658    0.58614706408303
H         7.83899826784690    9.68895778997673    1.42303194249325
C         7.38329770131529    7.16866690592483    2.49627192682726
H         8.44546644380062    7.37912177946125    2.39364516829060
H         7.04549686142241    6.67355956968974    1.58904507189290
H         7.23425866934507    6.48344216045820    3.32644496201996
N         4.43582953997006    6.11478884006676    4.49575236938042
C         5.09181772207374    5.02312434933823    4.04511182268868
C         6.14779530713273    4.47313809913461    4.81755951039410
C         6.50151598561598    5.14476450891518    6.12276021921058
H         6.33662718337087    6.22293093733242    5.98461849681306
C         5.54826574270224    4.66588438829766    7.22249634013487
H         4.51894091431090    4.88806034000218    6.94070399951933
H         5.76505297861056    5.17409679783898    8.15946856665441
H         5.65143284235991    3.59220167653043    7.36888637392848
C         7.95313943384524    4.94215803470170    6.55140846123641
H         8.12671906638470    3.92199073336998    6.88599197981941
H         8.18165369067858    5.60966086128032    7.37962558037726
H         8.63511407983880    5.16175689681840    5.73231472176733
C         6.80855287490682    3.34582273593612    4.36954213629273
H         7.60150285333961    2.91889302309102    4.96357419522593
C         6.47550846971403    2.75123042919750    3.16462743136550
H         7.00323433346187    1.87125152472953    2.82811161387873
C         5.46608305277072    3.29581778434662    2.39513473574385
H         5.21776152278747    2.83424811691901    1.45041096250980
C         4.76573524950650    4.41622286219944    2.80937354855652
C         3.67101190898287    4.98281619340559    1.93322663652496
H         3.19697752627027    5.81273150335396    2.48286701301334
C         4.25186644643837    5.54096035864456    0.63078040207644
H         4.91856343717058    6.37454477210827    0.83840943270213
H         3.45223200140705    5.88885243784989   -0.02037764676284
H         4.81430679931808    4.77434870150096    0.10252854414565
C         2.60617656935481    3.92956273996292    1.61517640075415
H         3.01667827780720    3.14588407387640    0.98329287224218
H         1.77013398295429    4.38460411463533    1.08656530265260
H         2.23238107091608    3.46917494944918    2.52642243075776
N         4.10935823368098    7.75424640980222    6.87011073250284
C         3.31187674862990    7.53166271339264    7.95185384078586
H         2.30095319419577    7.18133330595689    7.82343507247637
C         3.98692172458583    7.82705079667576    9.10596805958845
H         3.61192736582746    7.74756813102331   10.10803712964606
C         5.27334722334529    8.25996804297433    8.71868557640022
H         6.07022140342291    8.57265725343917    9.36742773542463
C         5.30737449718637    8.20004463901328    7.35082669012347
H         6.12120217312040    8.45133278155052    6.68484568661896

