44
CSD_code = SIBSAY | q = 0 | S = 0 | Stoichiometry = C19H21ClN2Ru | MND = 9
Ru        2.71881367656771    0.32057997597476    2.71661671876020
Cl        5.03842755609169   -0.10722611626084    2.60879735474576
N         3.31690326038878    2.24160134792426    2.76880728367515
C         3.56359848618423    3.16124464204399    1.84443805598453
H         3.36158954427020    2.98468450956498    0.80514238772057
C         4.11387896975911    4.29321550480256    2.44753360229164
H         4.41643576426854    5.20089373678302    1.96789073794796
C         4.18830739029285    3.99157700241647    3.79047919031236
H         4.55474062880244    4.57137340920696    4.61198104751161
N         3.70303875171358    2.74631635631402    3.94384111108716
C         3.55014256278613    1.89764913524994    5.04590503464246
C         3.84466272626792    2.26797954121595    6.34960324672999
H         4.22012237894968    3.25520846304974    6.57374731894294
C         3.65630092510432    1.33988668678609    7.35716412922250
H         3.87987927111683    1.60359172170362    8.37986066223421
C         3.19431439508548    0.07040600556038    7.04856408793639
H         3.05987329030218   -0.65535769614115    7.83777926096958
C         2.91247779301758   -0.28241657407923    5.73753199000751
H         2.57717097201818   -1.28879197780005    5.52873169699907
C         3.06663068735760    0.62538359495405    4.69856506622814
C         2.18527669894856   -1.71056042946840    1.84611418183853
C         2.28655906563696   -0.81878157570060    0.73267427945931
H         2.90908970389312   -1.09983873906912   -0.10947508212005
C         1.56497575811401    0.36598600894322    0.69957715909029
H         1.60461871404817    1.00549555853852   -0.17521783628176
C         0.73579004589738    0.74154816910037    1.79816801428554
C         0.56421661204728   -0.17280129843943    2.86251798116902
H        -0.17230676403226    0.02874446270886    3.63365288782268
C         1.27183683807253   -1.40439332007952    2.86887161358563
H         1.06453166032873   -2.12735215049641    3.64882808682468
C         2.91841694238767   -3.03249394479157    1.81127527267155
H         3.72484895430374   -2.95039328758265    1.07398354738943
C         1.95382743895942   -4.13494041234840    1.35937238167787
H         1.13720132238302   -4.24413032825182    2.07073238400523
H         2.47956827003259   -5.08406955395330    1.29070387284228
H         1.53087668007104   -3.90306653019165    0.38332162632427
C         3.55532196169259   -3.37304479434361    3.15896195615874
H         4.15476004608332   -2.53182419695251    3.50474211978399
H         4.20431771045702   -4.23867262268640    3.05230871887311
H         2.80162313030691   -3.60589411015790    3.90798792574023
C        -0.08198622776918    2.00002719656863    1.72693028934103
H        -0.95621987861094    1.83952173982138    1.09279483879472
H         0.49612267462288    2.81932964942541    1.30150726212456
H        -0.42567638822380    2.29450524013189    2.71668653464775

