91
CSD_code = SIBXUX | q = 1 | S = 0 | Stoichiometry = C33H45CoN7O5(1+) | MND = 6
H         1.24703187449927   18.29770885592934    2.43796596737766
H         1.00451573735172   22.27358269285556    0.90947336902163
H         0.06309916656917   15.98959235089097    3.44276900649476
C         0.24375549412238   14.12489829956734    1.94186543129868
C        -0.22054693832147   15.52127109565472    1.60032214334295
H        -1.09576817036742   15.46929493774904    0.94864717599408
C         0.90556363271394   16.29704076730528    0.87539835570593
H         1.77937165729185   16.32556297642711    1.53469606052070
C         1.24676949566473   15.66233092132557   -0.47065932764405
H         1.32375163986651   14.57883026402369   -0.36519150095778
H         0.41469325645577   15.87764826099202   -1.14307177831971
C         2.53370886398299   16.22067911355924   -1.08926129363220
H         2.50674893023179   17.31295540276288   -1.01837317072834
C         2.60086070726869   15.83495746610979   -2.56477113935957
H         2.58503408972484   14.75257574051217   -2.67426186513447
H         3.51198113986233   16.21537351632686   -3.02061824329220
H         1.75141364084465   16.24780722009901   -3.10145319819257
C         3.77664974589866   15.71059191660368   -0.36259965718742
H         3.79461708103538   16.04202190456207    0.67310642034801
H         4.67558787161484   16.08254091032188   -0.84862858389168
H         3.79938674578364   14.62176572468591   -0.38197531752812
C         0.38435029468163   17.72176691713246    0.65306505184105
C         0.28023051057027   19.95674566734263    1.66989370200360
H         0.01024533087818   20.22087427671441    0.64203193891439
C        -0.94365190700867   20.22545908444767    2.59477500916849
C        -1.25048223645346   21.72393979340701    2.62190515135581
H        -2.15765903559653   21.90046928126668    3.19508714362253
H        -1.41241751107338   22.10557830152548    1.61577133563709
H        -0.44361929681669   22.28316778552759    3.08973102045448
C        -0.65410582760287   19.72869688992418    4.01269555506307
H         0.28330355253073   20.13359672289699    4.38628844509071
H        -0.60165774914660   18.64287192104628    4.02436653838761
H        -1.45380113266686   20.03695254360028    4.68188251125699
C        -2.14797239194761   19.46847307426591    2.03190804933437
H        -3.02731537189651   19.66246472985567    2.64151900466303
H        -1.95942498215292   18.39825921552514    2.03163158841921
H        -2.35723893778587   19.77765020784270    1.01111029433413
C         1.52820857689515   20.72026239694176    2.11976576937388
C         2.79628988799425   22.80173418917128    1.88453322099040
H         2.43910910989818   23.74625280703457    2.29774316357870
H         3.39303798629633   23.00434841106773    0.99396343875550
H         3.41217870539404   22.29244913731555    2.62346930619720
C        -1.48267247760888   12.67179031088878    4.43358350267305
H        -1.21571863858056   13.71869914234115    4.39952526958584
C        -2.72860447278188   12.26486031150367    4.87641381490405
H        -3.44932484493554   12.99888124512755    5.19658879401610
C        -3.02498154743626   10.91109035755305    4.88950861898124
H        -3.98539265709686   10.55754453366848    5.22992937190340
C        -2.06500497521663   10.01638977237586    4.44239823769201
H        -2.26189676472707    8.95617770640517    4.42095402148896
C        -0.84614919240909   10.50225399280712    3.99690553898283
C         0.20933362668856    9.62177186398875    3.38737081729859
H        -0.02675804754858    9.56630021501547    2.31992146338487
H         0.18216249388985    8.60776534145942    3.80302869975312
C         1.84482086222015   13.38602652023192    5.97759640878704
H         1.58886823739410   14.30849526257125    5.47905728769018
C         2.16583229227123   13.35047140528018    7.32105103778993
H         2.16734477909020   14.25874792877501    7.90060474994129
C         2.48194939170798   12.12971363937742    7.90045259342622
H         2.73340390412993   12.06191989527268    8.94688858099846
C         2.47004104332807   10.99531804349894    7.10511891255308
H         2.71434043172696   10.02760525727859    7.51415446409590
C         2.14055331853711   11.11732372428945    5.76329398065508
C         2.15128697176171    9.93399837475263    4.83269066755439
H         1.64493871032400    9.08802352260487    5.31113536421927
H         3.19673637015214    9.64183213381988    4.68112224678480
C         3.71550878475073   13.34952322836319    2.48083483333757
H         3.28438728830695   14.28927764009868    2.79475954010933
C         4.98165573984855   13.28301728187701    1.92646741721076
H         5.56235577269045   14.18161530359842    1.79998345103661
C         5.47401303826739   12.04898955308457    1.53225193239798
H         6.45495786127749   11.95945986880008    1.09304290341320
C         4.67642934263710   10.92780468320568    1.70601847586392
H         5.01930701943515    9.95089583627619    1.40361268961453
C         3.41585241317758   11.07709238453435    2.26052166135623
C         2.44334827374705    9.94101776568183    2.41871993420958
H         1.85752648414102    9.90871520773472    1.49487839214957
H         2.95076817083627    8.97837116871290    2.54958569424813
N         0.07605028855212   13.13372869747631    1.16543052738550
N         0.64630178174454   18.56024969463624    1.67023075177755
N         1.68770982930878   21.93340106634268    1.56697474653676
N        -0.56280132130378   11.81059576296416    4.00865937370378
N         1.83044016793698   12.29401335942659    5.21408047955481
N         2.95256327090898   12.27399008799371    2.64551025980981
N         1.53176435038940   10.24678880368537    3.53222257506385
O         0.54156538460034   11.97108190411197    1.65285842200445
O         0.83939424505244   13.97895066555781    3.12329172295179
O        -0.62193133836025   16.17010341126574    2.78395732613994
O        -0.24070530866621   18.04409963365094   -0.33428998660852
O         2.31678537512268   20.23141309260044    2.90974475589381
Co        1.19911103375836   12.17425970518367    3.37664158281941

