64
CSD_code = SIBYOR | q = 0 | S = 0 | Stoichiometry = C21H34BClFeN6 | MND = 4
Fe        2.32835450217886   11.96849980941718    6.11783521342620
Cl        0.67298868812256   11.96849910146248    4.97090869804198
N         5.28655484776501   11.96850029267678    5.04661835697225
N         4.08896800379720   11.96849935839191    4.43393426725956
N         4.80974992650576   13.19531124303290    7.15730183663512
N         3.48290884928292   13.33074411273278    7.12036158086391
C         6.27197119601886   11.96850222321844    4.13742728934912
C         5.70522887494397   11.96850261327737    2.88647284289909
C         4.32282278157438   11.96850053333420    3.11987188443064
C         3.24035029855252   11.96849964851956    2.07516002392435
C         3.84425566252948   11.96849954229793    0.66707003395894
C         2.38968726991510   10.70474276365418    2.24119751639909
C         5.36709983810055   14.26506408758917    7.73201244133093
C         4.35936183401490   15.13744152938283    8.08335970555757
C         3.17673424678340   14.51008711774695    7.67873311242694
C         1.77240551981249   15.04327176570069    7.76606173522806
C         0.83553949479504   13.96241411800016    8.31144756267907
C         1.71660937365701   16.26561892847890    8.68721752001336
C         1.33046415173582   15.44951539457387    6.35379630427702
B         5.49872603013663   11.96849976985722    6.56025366137199
H         7.30115219796340   11.96850328182431    4.43456475596949
H         6.21790821528728   11.96850398321020    1.94790798722966
H         3.04423198732018   11.96849842551497   -0.07047019597732
H         4.45597358286760   11.08389891747247    0.50538065635159
H         1.55682959796311   10.71311889976998    1.54164320864221
H         1.99941221390827   10.64349490795684    3.25180384405778
H         2.99461948911322    9.81961645234790    2.05319286878026
H         6.42800279772733   14.34337958394377    7.85447965426375
H         4.46810213978392   16.08648180025985    8.56464529500842
H        -0.17540915065200   14.35111855856349    8.40685703002953
H         1.17223247564821   13.61964194076957    9.28703620773273
H         0.81077015967585   13.10878617663826    7.62943405457204
H         0.69039732827377   16.61623779032915    8.77080420694587
H         2.32003273792207   17.07797944518761    8.29094806234878
H         2.07665338669251   16.01488760456549    9.68230753004630
H         1.97522193460837   16.23470730357257    5.96538002272353
H         0.30603724319774   15.81417709549232    6.36655754208251
H         1.39003010482963   14.59363122889751    5.68102673641573
H         6.65347370932949   11.96849954496139    6.82018145939279
N         3.48290849779570   10.60625583199788    7.12036164909569
C         2.38968603511415   13.23225582149379    2.24119693876865
H         4.45597190599985   12.85310115366894    0.50537974009420
N         4.80974957585957   10.74168825762238    7.15730137779998
C         3.17673363643265    9.42691287472641    7.67873308678194
H         1.55682944453905   13.22387933281312    1.54164135832384
H         1.99940942843812   13.29350288244977    3.25180269429765
H         2.99461779193747   14.11738271354401    2.05319359832096
C         5.36709938092635    9.67193497133537    7.73201135744795
C         4.35936122932937    8.79955787141811    8.08335893350581
C         1.77240487724911    8.89372845373583    7.76606185425905
H         6.42800236607877    9.59361909974986    7.85447813756512
H         4.46810140399939    7.85051740163879    8.56464417067689
C         0.83553871965350    9.97458630301606    8.31144691220149
C         1.71660842785738    7.67138166072178    8.68721812703107
C         1.33046389334866    8.48748410763916    6.35379648046797
H        -0.17540995645400    9.58588193191722    8.40685608407618
H         1.17223120965090   10.31735914769070    9.28703548749053
H         0.81076952113656   10.82821387811861    7.62943296531904
H         0.69039634377295    7.32076286394415    8.77080462080511
H         2.32003180123812    6.85902102544932    8.29094896399714
H         2.07665223565827    7.92211314568243    9.68230818051742
H         1.97522098622163    7.70229116888345    5.96538115686839
H         0.30603657400563    8.12282360215096    6.36655746910688
H         1.39003112852735    9.34336760396967    5.68102614151746

