65
CSD_code = SIBYEJ | q = 0 | S = 0 | Stoichiometry = C32H28Br2N2Ni | MND = 4
Br        2.17020474376736   10.74932842596463    2.37140686697564
Br        0.03204161434704   10.75300651605116    4.71779716758098
C         4.65057110058039   10.36983494953560    9.87352287222479
H         3.96631380230066   10.87583800451549   10.53897074924233
C         5.27555853395038    9.19386534344738   10.26367118204655
H         5.07274667252718    8.78178452406041   11.24024543770239
C         6.15036203993519    8.54561742842411    9.40889427691552
H         6.62601308595856    7.62839258820814    9.72061577930425
C         6.42244728816348    9.06535644074108    8.15128828206804
H         7.10505534880185    8.56065017393908    7.48337857688836
C         5.80677432481888   10.23816172731965    7.76299071423727
C         4.91768549192664   10.88688684018672    8.62131877204369
C         5.99297160484565   10.92774833641527    6.43230417684246
H         6.70154465813332   10.42764924864450    5.77160176287594
C         4.29853412627440   12.13595096807932    8.03525704035588
H         3.60061538186086   12.63826660442927    8.70554430649470
C         5.44105589843876   13.01050376079089    7.57600955942882
C         6.35002496880550   12.36564620724679    6.73576951785245
C         7.44559389766855   13.04326663513766    6.23853880012763
H         8.15145556446571   12.54168306173426    5.59256526725507
C         7.62664657729787   14.37528762355558    6.58317142620136
H         8.47965236537682   14.91337273203454    6.19911880110547
C         6.72021922999319   15.01732461427034    7.40921106071078
H         6.86790738052181   16.05520982828128    7.66553265284359
C         5.62018997561356   14.33719703370994    7.91226421041098
H         4.91196899455691   14.83673792361498    8.55698420278358
C         4.60630821992782   11.03260326639046    5.85636008405183
C         3.66041089211958   11.64098104721144    6.76507609825101
C         5.02387589153384   10.04623537683267    3.77588466221741
C         4.97186909780255    8.65200322728557    3.69650998661389
C         5.79329334111303    8.01440917961041    2.78144838480278
H         5.76343239364952    6.93766991045251    2.70750163959383
C         6.63298566843157    8.74536787966221    1.96011124750383
H         7.26698294096081    8.23674153463996    1.25005602246015
C         6.64286635941138   10.12698353425794    2.02656110413020
H         7.27565630916411   10.69511753709184    1.36127094911869
C         5.83567097259359   10.80276753504870    2.92844720844935
C         5.77712501393301   12.29859542969445    2.97130815265182
H         6.10170979315063   12.68945690094134    3.93715520866658
H         4.75009945613739   12.62724896968096    2.80424291318554
H         6.40549575819950   12.72703720993306    2.19571984976643
C         4.01914325248847    7.90080977653808    4.57543891895237
H         3.94008990580173    6.86334116671531    4.26327943710479
H         3.02016613073624    8.35530819220853    4.51817979928499
H         4.33765318158731    7.92843573529336    5.62014220884861
C         1.45759645790767   12.29591925759939    7.20793253185533
C         1.08910547173668   13.60583124482661    6.88918726684954
C         0.12414342356389   14.22515750116965    7.66618752118660
H        -0.17157626485530   15.23677485250762    7.43192827455329
C        -0.46659452735184   13.55427064019328    8.72208189730025
H        -1.21841315705473   14.04733593530206    9.31915917187211
C        -0.11713850378280   12.24467666653694    8.99818980863381
H        -0.60444918038055   11.71391009345196    9.80231472363248
C         0.84419621970821   11.58947316360961    8.24435452778801
C         1.18637897892598   10.15024855732716    8.47732116778813
H         2.23796897926583   10.01972774454225    8.73698549891077
H         0.99228470383609    9.57968173933839    7.56760009214171
H         0.57819190102999    9.73808747007989    9.27751124892262
C         1.72382134254624   14.28174041959586    5.71243032230158
H         1.20084568359680   15.20112757609374    5.46492245613915
H         1.68827622745344   13.61840970056932    4.83644173869600
H         2.77239361405058   14.51751562397710    5.90858809216796
N         2.43189269050348   11.67306865881017    6.40580833900721
N         4.17767191115617   10.68664706817502    4.70046860147743
Ni        2.22161477847155   10.97031513646833    4.56521938060341

