122
CSD_code = SICBUC | q = 0 | S = 0 | Stoichiometry = C63H52AgO2P3S | MND = 4
Ag        0.37690251348489    6.28633212015444    6.45611624384611
S        -0.48004529923809    8.66569100359317    5.97430235950655
O        -0.76973422056480    8.57854763552094    3.19085929542117
H        -0.21593665581351    8.88504185256187    3.96181479419666
O        -2.75388085590665    7.57854572054358    3.04867766822448
C        -1.88445716864830    8.07899778958036    3.72295049297599
C        -1.96981354474770    8.18471137598334    5.21315012764477
C        -3.18365984802071    7.97556950637243    5.77503623083202
H        -3.95303068033487    7.70356360903825    5.05892002283339
C        -3.61550405963489    8.01834666010731    7.14840124698015
C        -2.81183123542959    8.43556110100093    8.21564562058905
H        -1.80509028741485    8.77267343225143    8.02926277185581
C        -3.30253444792229    8.45202497800284    9.50753529421798
H        -2.66473101072714    8.78383923495536   10.31504071453705
C        -4.60094405355346    8.04956291296393    9.77436476826611
H        -4.97857993231488    8.06241856519716   10.78681407206142
C        -5.41512904447687    7.63998169159992    8.72792198291389
H        -6.43495961113972    7.33784317921514    8.92485993948781
C        -4.93178777078747    7.62757980672986    7.43711836794518
H        -5.57519024199289    7.32073248689540    6.62356804228945
P         2.98413485361671    6.50945999372100    6.68186682073609
C         3.78304608903858    7.44522459165849    5.33522720562925
C         5.03751695259406    7.13046367479016    4.82426652646853
H         5.59970845154341    6.30279797482983    5.23318567164440
C         5.56275332634495    7.87945905418037    3.78587971806714
H         6.53726143915593    7.63287727806554    3.38964672737463
C         4.84634349985374    8.93907929475743    3.25325208829485
H         5.26149962696252    9.51509855947578    2.43920915378442
C         3.59707031882597    9.25736244563398    3.76231023596268
H         3.03367338380905   10.08002138293879    3.34784494456248
C         3.06609957833665    8.51233108413628    4.79806070396470
H         2.08829224124365    8.74865759430931    5.19941907377600
C         4.01860672750961    5.00772678156551    6.72765028047787
C         5.04105687171100    4.77692313163194    7.63967757550858
H         5.27143998328047    5.51262788622220    8.39654509005298
C         5.77082902512352    3.60287682380944    7.57330431552924
H         6.56557251332441    3.42832664121382    8.28400221612729
C         5.49394595794250    2.65781167331916    6.59958287126731
H         6.07029672886279    1.74547637334751    6.55283713083584
C         4.47473783691792    2.88333171185739    5.68724959238343
H         4.24714856159177    2.14916637804514    4.92794146861455
C         3.73889865034907    4.04928224424985    5.75675192925397
H         2.93297830794626    4.22677448726899    5.05467525831020
C         3.52827815902008    7.41950549400464    8.16225078987824
C         3.26633778334784    6.83157804762650    9.39936081058476
H         2.81278569095323    5.84894846741279    9.43253949520040
C         3.58060620532671    7.49534214604647   10.56839749268858
H         3.37460768762024    7.03102519024929   11.52193273078186
C         4.14749954409493    8.75948327469452   10.51459176668188
H         4.38846279521572    9.28291013110429   11.42800977503690
C         4.39829674517100    9.35247240826375    9.28870412130415
H         4.83498075183385   10.33957755895493    9.24579330189483
C         4.08894664572530    8.69015513430398    8.11302994027348
H         4.27989168604120    9.16247091962017    7.16012029454436
P        -0.24174446899504    4.60266576048994    4.59207894549787
C         0.52526375960894    2.97013963593423    4.30087706706183
C         0.19648183706539    1.94587993964883    5.18718840694659
H        -0.55038836308617    2.12728054983847    5.95023355011122
C         0.80174257145710    0.70948630543499    5.08043754673579
H         0.53917456212378   -0.08048724008800    5.76921724958279
C         1.74453510261658    0.48248324654380    4.08948588577405
H         2.21765018233194   -0.48487173782846    4.00453801906927
C         2.07551143907513    1.49695755338467    3.20678634377314
H         2.80436055079667    1.32061896248563    2.42844181482029
C         1.47538820071033    2.73986905836448    3.31289352072698
H         1.73831423654887    3.52847946770930    2.62109133190592
C         0.00808443222865    5.43135933020672    2.99091491907537
C         1.21648107672091    6.11085956135792    2.84381136447080
H         1.93142635140840    6.11409965652725    3.66182445511007
C         1.49594477390984    6.79561340633170    1.67843537088270
H         2.43264749331073    7.32537309177520    1.57871040714024
C         0.56043131056501    6.81939263486770    0.65661750825703
H         0.76622531414785    7.37000872936251   -0.24932821280496
C        -0.64750817678816    6.15997735203246    0.80582474067971
H        -1.38714574289410    6.20169074037042    0.02065782756377
C        -0.93037083797659    5.46471046747590    1.96805876812024
H        -1.88993077404969    4.98510047662873    2.08856319593467
C        -1.99268480431830    4.11515140937760    4.60002129884006
C        -2.84161607377180    4.72638463760017    5.51284449066200
H        -2.44735882272172    5.46940782705219    6.19647520874270
C        -4.18225758575102    4.39175733490354    5.55181552431176
H        -4.83313558067324    4.87587365847063    6.26371101973191
C        -4.67970126085807    3.43791600858555    4.68173568969219
H        -5.72740414085123    3.17637851471979    4.70688997106606
C        -3.83441771528325    2.81404959664128    3.77662764341008
H        -4.22406456650941    2.06750182784142    3.09946213657227
C        -2.49411190717980    3.14577693234874    3.73365594303608
H        -1.83235337771039    2.65221763830176    3.03411650024127
P        -0.31539217056407    5.17579840614050    8.68888055277783
C         0.96395805676204    3.99340603132358    9.24281338551735
C         1.56291766731929    3.21486637188064    8.25576656945338
H         1.26332242681163    3.34749862171302    7.22254549742696
C         2.53307795627041    2.28784369148777    8.58443136952263
H         2.98027830275377    1.68278443644123    7.80996051962555
C         2.93646624605587    2.15133407572509    9.90250635751354
H         3.70395617934098    1.43739590443710   10.16165871794283
C         2.35871179285514    2.93631250184640   10.88695135338778
H         2.67740305054571    2.83482704171378   11.91424766274325
C         1.37122910236135    3.85057428367912   10.56440495040069
H         0.92765911767193    4.46126093729379   11.33767208848031
C        -1.81675491386904    4.15359003304796    8.81510712426216
C        -1.79674033425711    2.77777338114868    8.61124668196637
H        -0.85402551927689    2.26380478171797    8.48119325974317
C        -2.98245107787341    2.06583117720122    8.58846335065239
H        -2.96163638307443    0.99686455085813    8.43169190243588
C        -4.19221716709657    2.71602932735877    8.76618189384171
H        -5.11451595019583    2.15462412087572    8.74739252203009
C        -4.21586655171139    4.08718836479985    8.96568735951202
H        -5.15464379151574    4.60259997527823    9.10602514907933
C        -3.03683136624838    4.80632547297644    8.97845637305088
H        -3.05520117911653    5.87808886093848    9.11696031023059
C        -0.46044837348122    6.29943269289775   10.11094305977613
C        -1.11634402365800    5.96133584468035   11.29160376652164
H        -1.60731660123392    5.00170010064403   11.38218546755643
C        -1.14708233479604    6.86114575850949   12.34101441110006
H        -1.65941142187587    6.60028508861123   13.25591883274193
C        -0.52473293285576    8.09466566197038   12.22325565489530
H        -0.55394337672859    8.79248737945858   13.04741443081751
C         0.12043852760088    8.43786450253195   11.04640252509528
H         0.59475908750493    9.40290744963208   10.94601172493000
C         0.14697166977291    7.54476294003587    9.99140145459027
H         0.62857012537069    7.81429740114592    9.05751109364946

