51
CSD_code = SICBIP | q = 0 | S = 0 | Stoichiometry = C13H23BClN6O6Tc | MND = 7
Tc        2.04871661916092    4.68350776497363    2.70801015564905
Cl       -0.01885695491670    5.19201765521697    1.68079982376830
N         0.69087138273029    4.18438590238376    4.27302396370796
N         2.20118332069223    6.80114680145605    2.52200281057199
N         3.11762587358789    5.21459471648239    4.42270568134691
N         1.43563406063738    2.79652374768461    2.30403678700576
N         2.71769253261165    5.00922079227592    0.82501350150265
N         3.85846272421690    3.64852888116828    2.72917476492194
O         0.32350246768193    4.95376681547757    5.33093909452761
O         1.92678055063824    7.73895184451792    3.46601421559988
O         2.58429154111922    6.07616361225863    5.24894130994196
O         1.90815050994716    2.12904497798244    1.24754700741304
O         2.99259618367273    3.99159036506153    0.00388844970069
O         4.18361963095706    2.79523433932027    1.74019621236537
C        -1.20229155936917    2.73577256392238    4.87403667634579
C        -0.01993189714911    3.11971137437691    4.04781426574217
C         0.40184223531928    2.32478477063364    2.93294265364917
C        -0.30075502117421    1.06873795014943    2.53577625664007
C         2.21150263503462    8.65653399926160    0.90856834980230
C         2.34961684007044    7.22318177062575    1.30161202607325
C         2.65114124848339    6.21002152605270    0.33453522099129
C         2.86312777936872    6.52234524126638   -1.10994924555120
C         5.08813504182501    5.06177722197526    5.89542459745751
C         4.29335546426324    4.70708053014989    4.68131483264323
C         4.72627701135383    3.79129007888344    3.69102541440318
C         6.03426745293995    3.07374889550847    3.75359257886639
C         3.70574484142651    1.60331126689507   -0.46205976694324
B         3.18583181354874    2.64573315673459    0.64566501843400
H         2.08581610864409    7.26216616906497    4.34469709774061
H         1.11222435256105    5.57108621296227    5.47678197517906
H        -1.23762108792491    3.34935281212885    5.76982871256968
H        -2.11396627027924    2.90345155655447    4.30213233647876
H        -1.15564142865596    1.68427827505241    5.14676238684500
H         0.15620645602801    0.67635439039838    1.63100380365504
H        -0.22963246183403    0.32276108900817    3.32620235205566
H        -1.35335016857301    1.27350873882602    2.34946983403460
H         2.15843907651807    9.27687198474537    1.79874362360793
H         3.04961379586868    8.96796312994497    0.28971976118089
H         1.29370063649936    8.78859686526183    0.33718103292628
H         3.02162049290714    5.59547131516563   -1.65503779903037
H         1.99103893037129    7.03381213024765   -1.51299560473781
H         3.73093175932676    7.16773791717768   -1.23914554204881
H         4.52302015853827    5.77553423128235    6.48974173908911
H         5.28818258866391    4.17369499885985    6.49180764989891
H         6.04041506375462    5.50488692426990    5.61007049813920
H         6.13929052116193    2.43656528587169    2.88023619603566
H         6.85407158622142    3.78940261167847    3.78108770246831
H         6.08516015769642    2.46436396699139    4.65428335450385
H         3.86616359651335    0.62285727820043   -0.02675898911676
H         2.97964199459500    1.50162525488825   -1.26116106479323
H         4.64153981272721    1.93564829871945   -0.89834371325626

