49
CSD_code = SICCAL | q = 1 | S = 0 | Stoichiometry = C16H26CoN2O2P2(1+) | MND = 6
Co       15.32178358482971    9.17243107468054    0.00018956123304
P        14.89137694007199    9.98715414705601   -2.05738699666506
O        13.86450341181218   10.18806022389662    0.63462007624464
N        14.05508027135150    7.80918055818239   -0.23410603314155
C        12.80240217283601    8.21653563850148    0.20748068576200
C        11.88938720813179    7.15468562716161    0.02592833148047
H        10.84719993077417    7.17079705526689    0.27397632480954
C        12.61135956010162    6.12170149315096   -0.52674947445809
H        12.24791801235176    5.15222776816872   -0.80461861553283
C        13.93922811174303    6.56806389310420   -0.67097675173043
H        14.77783947154975    6.02798320404059   -1.06984681955537
C        12.78651209785928    9.52706202327081    0.65641298392658
H        11.88495604532936   10.02027175404452    1.02185660564050
C        16.05836541830020    9.50028677710726   -3.37339368393925
H        17.05666440197249    9.86720908216479   -3.14125001345592
H        16.08845544246600    8.41503125999223   -3.45089722998478
H        15.72812005111293    9.92493659573521   -4.32083446662120
C        14.87529304043920   11.80713664796330   -2.17700389022031
H        15.86592160543291   12.20412271345786   -1.96399730032595
H        14.57427742863784   12.09944373072672   -3.18253329774820
H        14.17069759309573   12.21124369242060   -1.45272239669505
C        13.27995311823997    9.53740232462204   -2.79146018842945
H        13.19680656851005    8.45561826225826   -2.87880944400273
H        12.46846523426932    9.90561374584843   -2.16638515832556
H        13.20399542223814    9.98732836869290   -3.78108618459335
P        15.75219558670532    8.35772453277812    2.05781989477648
O        16.77894852798762    8.15697589639527   -0.63485172514201
N        16.58840479234942   10.53583136057291    0.23397371236362
C        17.84110312787115   10.12844181822141   -0.20751962483172
C        18.75409053740444   11.19033384954690   -0.02607574428108
H        19.79630553674719   11.17418919742350   -0.27400960766881
C        18.03214459605913   12.22327477777147    0.52671719879098
H        18.39562289382240   13.19267770479608    0.80477603315821
C        16.70422058636836   11.77699867957659    0.67070738338682
H        15.86565011236222   12.31702066771823    1.06973704511487
C        17.85702853963237    8.81784893791947   -0.65625902120371
H        18.75856716190992    8.32466359404770   -1.02178230348112
C        14.58498435198439    8.84482048348255    3.37351569210713
H        13.58670190394685    8.47787039896580    3.14132817605584
H        14.55494226511244    9.93008141585260    3.45101242033344
H        14.91526053945574    8.42014076380985    4.32090660775969
C        15.76817513107205    6.53773160794812    2.17692323887581
H        14.77752387874708    6.14080484158815    1.96390860166039
H        16.06919484571554    6.24543925826870    3.18243356702322
H        16.47280073258615    6.13371763843668    1.45260949135696
C        17.36372494164839    8.80770125839209    2.79147600839922
H        17.44683634600855    9.88949206482471    2.87883246411564
H        18.17515406328194    8.43944189532039    2.16634497255207
H        17.43965685776512    8.35774969482644    3.78106889510614

