43
CSD_code = SICDUF | q = 0 | S = 0 | Stoichiometry = C20H12N10Ni | MND = 6
Ni       -1.70582450293153   12.80764140779926    9.23163145961056
N        -2.14153193473482   11.19117736275304    8.53345552548816
N        -3.81956138067762   12.62511764678410   10.01630929941663
N        -1.29263874967574   14.41267519244387    9.93903278352210
N        -0.98581151723326   12.11855011914759   11.15611985448983
N        -2.39315020655222   13.98923110924848    7.61899439440132
H        -2.79996603053299   13.83596995732644    6.70073651682969
C        -3.34297921190420   10.71561568817809    8.72102683597592
H        -3.63378235267018    9.75756085766451    8.29927942087541
C        -5.60490564618454   11.05183588501246    9.70154441508305
H        -5.94668824244706   10.12492938364034    9.26840156960729
N        -1.07527661017755   17.87184574920554   10.01510663580881
C        -4.28390192480644   11.46977939798377    9.49222711289627
C        -1.29375644668504   16.81096820738768    9.62886314598180
C        -0.76146161127494   14.45624390200123   11.12999530920820
H        -0.48042018427274   15.39939386318068   11.58880845525922
C        -1.56047480040745   15.50737643215541    9.18708042596192
C        -4.63553946933414   13.37408041238846   10.73641714721619
H        -4.22072028881170   14.29121438543395   11.13584011070158
C        -0.83193491056287   10.93204447339464   11.71790385618863
H        -1.18716579624734   10.07825296948185   11.15486884275868
C        -5.95505815048833   13.03086531992274   10.98793081368337
H        -6.58161622921799   13.67517042195074   11.58293424891666
C        -6.44458805815087   11.84326576118182   10.45661937532185
H        -7.46782551214090   11.54607133607186   10.63173183543532
C        -2.14609683313410   15.23518447727435    7.92486262608828
C        -0.25171855057805   10.75746227119811   12.96471936830284
H        -0.14926418729737    9.76916994540963   13.38226423806018
C        -0.55767745804228   13.21855187587967   11.81718049249969
C        -2.45412261711844   16.30700107183255    7.03528547154210
C         0.03816998608023   13.12300036247608   13.08113648009824
H         0.37098287134464   14.01830949925198   13.58211664126024
N        -2.72830767315141   17.12547959419327    6.28237966036754
C         0.19073291581663   11.87914033800347   13.65648343148396
H         0.64796961001698   11.77701006435096   14.62921718384398
N         0.24244326569935   12.33112894259817    8.31869838431654
H         1.16118440384611   12.74855732306884    8.20056182692150
C         0.07692189818702   11.17859568183376    7.73246068780337
C         1.12673822975624   10.54565542751503    7.00047485511138
N         2.01468960853803   10.09285588618018    6.43568597352551
N        -1.61386496710143    8.24188043913083    6.79591247872766
C        -1.41123064911749    9.27625925779745    7.25633022109580
C        -1.18407008562081   10.53278030026811    7.83597058831326

