43
CSD_code = SICDOZ | q = 1 | S = 0 | Stoichiometry = C20H12CoN10(1+) | MND = 6
Co        4.04199309391028    3.41364362494658    3.14710346822436
N         5.76953923313485    3.11241338813721    2.32600367053653
N         3.75822314064402    1.64790850527956    2.73700930328357
N         2.28844507176303    3.32585446187451    3.87708979574648
H         1.69975716984592    4.02262282636016    4.32320046072728
N        -0.60047272677625    1.60926992240457    4.61268897429760
N         1.90503387146590   -1.28200424223604    2.69823682265141
N         2.54745509505847    6.63652278376141   -0.64021550013835
N         3.36130025585145    4.06264502741550    1.49441679972732
H         2.98158389533535    3.58947060633750    0.68019254471984
N         4.27044165456191    5.19186537480035    3.53760546732876
N         4.79894204650723    3.14250130138222    4.90878770564235
C         5.07180523366073    4.33107096095848    5.50876380099105
C         5.60579024127875    4.38884814445485    6.79916271530325
H         5.80734380757411    5.35038527981481    7.24291278498936
C         5.85778315534195    3.21355337060850    7.47768204645531
H         6.26540643721219    3.23179226795868    8.47601028971912
C         5.57505417624554    2.00466819526739    6.85144885970680
H         5.75481449126786    1.06427696778794    7.34518651781387
C         5.04857344427000    2.01805960681049    5.57126375542671
H         4.82239579896728    1.08645723082428    5.07094259171101
C         4.76275189453003    5.47612740665531    4.70999484751588
H         4.92058157277840    6.49060581316182    5.05301009769238
C         3.88661676356742    6.05285231861704    2.56556441690959
C         4.00320392087699    7.44969533177932    2.68673461148888
C         2.91965516158653    6.08959226498407    0.29229561702971
C         3.38059507622483    5.37851310339252    1.43685928705376
C         6.78787370268251    3.94558280303825    2.14055459615945
H         6.67686562457677    4.95536653941491    2.51120977169056
C         7.95655002929648    3.56856958951727    1.50160439537988
H         8.75061249778570    4.28518243289582    1.37373187330110
C         8.07878104664174    2.26559522820968    1.03165744304468
H         8.97724137252948    1.94651120004687    0.52756719741521
C         7.02908521757863    1.38939091821363    1.22030287120072
H         7.07613515220820    0.36999878635581    0.87288856524396
C         5.87600930514553    1.83582811816229    1.87199930975389
C         4.72270681446981    1.02729058088676    2.11868928395583
H         4.65635767661847   -0.00899580980123    1.81299565941396
C         2.55360133770172    1.15292516413690    3.10771366308879
C         1.75842884030902    2.12749522752722    3.74221716297549
C         0.45077014713053    1.82457654724771    4.21801273314941
C         2.17137236514587   -0.18299051057873    2.88712976987348
N         4.12939589349514    8.58136134118941    2.81987395179958

