36
CSD_code = SICFAM | q = 0 | S = 0 | Stoichiometry = C11H18ClMnN2O3 | MND = 6
Mn        7.74580752436457    3.97341192734282   11.61346125924613
Cl        6.45606789957638    5.50694935197562   10.60449293789612
N         9.11349218787106    4.28836588473761    9.84379894274514
N         6.86828284514197    2.63461332108792   10.16658336911200
C         8.74565081087360    2.71913614628362   12.36413886442843
O         9.35412811068680    1.91178637266844   12.92469075507482
C         9.74130774920386    5.59004856291993    9.63815404697220
O         8.67890104881959    6.17732526897346   13.29318266876257
O         5.66993638594009    3.67493029282320   13.64903336434825
C         8.38747877017245    3.77146184605060    8.68152233944739
C         7.71260125712430    2.42224276653611    8.97984725093260
C         8.37437216198148    5.28594670927083   12.63248925184823
C        11.31166659513273    4.15891973330297   11.09806182226928
C        10.57794885864301    4.38299598947242    9.79419819255390
C         8.74126014661954    1.33198389457657    9.27687117817844
C         6.48374765143351    3.74590484023004   12.84278587321314
C         6.84447289150518    2.01019584820837    7.78481545727883
C        11.35681740138157    3.84890377648032    8.60891417708247
H         7.60126421945636    4.49959060335819    8.44761322324296
H         9.65113865819771    6.30379809961531   10.44581280533193
H         9.35787540299976    1.61131972545626   10.12858491250428
H         9.03120347321959    3.66662880902910    7.80444634894853
H         9.63274200346451    6.02822880324329    8.65205239185435
H         6.07986819453405    3.23283694221901    9.88769792766123
H         6.32392712380049    1.07814864545285    7.99789332505174
H         7.45507227517182    1.86052796366860    6.89787473568947
H         8.24213592059845    0.39315910759161    9.50908576289877
H         6.47638541975211    1.74037206559684   10.46797644211068
H         9.38056332179831    1.17014057396327    8.41244990951148
H        12.24573674359591    4.71744820664797   11.09334302359264
H         6.10428397626416    2.77713509518757    7.56249603241141
H        11.31902495444859    2.76137941734886    8.57821934469475
H        11.54198957621338    3.10372463671341   11.23031106015601
H        10.71345053099604    4.49293816373169   11.94466009387944
H        12.39754425135517    4.14429947287406    8.72217256750458
H        11.00825365766201    4.24760113536038    7.65956834156579

