83
CSD_code = SICLAT | q = 0 | S = 0 | Stoichiometry = C24H53ClO2OsP2 | MND = 7
Os        1.65408584432084    6.28561280558393   12.06202319529077
H         2.26879654389278    6.48167812805971   13.47572953942979
H         3.07147121865879    5.72785681801000   12.21736643274860
Cl       -0.02621225579115    7.30142439215515   13.40139502449515
P         0.73850005372019    4.17803052301436   12.82141376179263
P         2.40803898419800    8.54835012295366   11.61785013509028
O        -0.09221638672808    6.50187738377964   10.60833749457850
O        -0.72396809032509    6.09042115072239    8.48300682189451
C         3.69524358918754    4.92713483054289    9.90419677963489
H         3.69834353538336    4.45131542523016    8.92169559296364
H         4.00368613847973    4.19754403535122   10.65132141021776
H         4.44396273765146    5.71750957915125    9.90435982621115
C         2.34657567098748    5.50715209450630   10.23188502186388
C         1.45455645518869    5.52090744332963    9.20152594467016
H         1.66015184525582    5.14388948817718    8.20742555306878
C         0.17373328821421    6.06704112666635    9.47971251058255
C        -1.99676279670319    6.65796779571376    8.78250907216167
H        -1.86243490345645    7.70732438346795    9.07152617896069
H        -2.44013599973140    6.12420498886524    9.63144957087657
C        -2.87038747850978    6.54221468583014    7.54834934454580
H        -2.41053902941634    7.06740309356252    6.71548967178686
H        -3.84573334256610    6.97575105773931    7.74976829443847
H        -2.99328739961437    5.49790594191366    7.27398024874056
C         1.00246790086891    2.70822026233459   11.66430410921541
H         1.96969731895125    2.94616852241326   11.20279506637731
C         1.10936022248808    1.31566653904562   12.28349872596686
H         0.21398770975615    1.04689161854703   12.83573158065002
H         1.96712743972947    1.22717922107962   12.94324230518082
H         1.23491011372514    0.58924345970724   11.48033058584514
C        -0.04161964596950    2.69236772395990   10.54932544899152
H         0.30543743747412    2.07492022944579    9.72094566097216
H        -0.21959745539091    3.69407629855457   10.16721393285439
H        -0.98232110288561    2.27680460077455   10.90334906820543
C        -1.04938469459800    4.16893646047588   13.39443836984667
H        -1.00972387195636    4.89649506800686   14.21553853104556
C        -1.58112380882582    2.84369267676598   13.93449134957267
H        -2.55038080791364    3.01989322320541   14.40108541608359
H        -0.92703019356523    2.40817793381704   14.68501702831889
H        -1.73001152823590    2.12297029322323   13.13354133071675
C        -2.02209689285297    4.73943731161292   12.36514102614116
H        -2.20451749230276    4.04934408905919   11.54459375735233
H        -1.64006302386542    5.67507278873412   11.96724495066362
H        -2.97634141264211    4.95051147947579   12.84802940311617
C         1.57843880013729    3.56460229452913   14.38306432970286
H         1.20488991421464    2.55354988465289   14.57334787471340
C         3.09166647845203    3.49306459909226   14.18872803799143
H         3.51175906716181    4.49579210049240   14.17516870547663
H         3.35460543442527    3.00407697353421   13.25372576932720
H         3.54591229296150    2.93804095271215   15.00869817138886
C         1.25246559678910    4.44760309002785   15.58560541259989
H         1.94484001739342    4.23200364326939   16.39801049302340
H         0.24336049153896    4.27627821308290   15.95130150655245
H         1.35173215619493    5.49964395879354   15.32238573777255
C         4.10217305867030    8.68668898457471   10.80651911803203
H         3.92356384064723    8.17777909914081    9.84939003608745
C         4.61918724063529   10.09340585394450   10.51754578739541
H         4.90249142959560   10.59673225764231   11.43805744715953
H         3.89317522407016   10.70691640339936    9.99184102722797
H         5.51052956197324   10.02387730042672    9.89375576715101
C         5.18007027114055    7.89563986539773   11.54693352847496
H         5.98996797857859    7.64321174666619   10.86312568148147
H         4.76902066043222    6.97659858344691   11.95990966623147
H         5.60449261173113    8.47758414879010   12.35890241251035
C         2.40923589456214    9.58760225413220   13.18576317109699
H         1.47243796348003    9.27308069625507   13.66404555581893
C         3.55215364433832    9.17898798499972   14.11373336757722
H         4.48598495083726    9.64670796534545   13.81171005175140
H         3.67693524891931    8.09718833404800   14.11619469440169
H         3.33088412603968    9.49897793672436   15.13070099269982
C         2.37945057351124   11.10857329970691   13.04361797946008
H         2.41020351882687   11.54286842186612   14.04275257870631
H         1.47006996668429   11.46144201677689   12.56562322113293
H         3.23542993036033   11.48715986985062   12.49186053276653
C         1.39362746053573    9.63238999422052   10.47438794934491
H         1.80269675984582   10.64608242598678   10.55692872491053
C         1.48783612403838    9.19582754050368    9.01336144485434
H         1.26299284176507    8.13815331850922    8.90170948527839
H         2.47813944728304    9.37564542246498    8.60047272998206
H         0.77000198773612    9.76017790519576    8.41707541376975
C        -0.06116449524108    9.65642335934142   10.93551515370508
H        -0.64601079758503   10.33126593653083   10.30888988925136
H        -0.14810472911568    9.98226213108138   11.96959469757719
H        -0.49588697782669    8.66260613823824   10.87347078246416

