80
CSD_code = SICLEX | q = 0 | S = 0 | Stoichiometry = C23H53ClOsP2 | MND = 6
Os        7.48410095324950    2.82934377915863   20.56630128745300
H         6.38844467860912    1.95594703858187   19.92120336820769
H         8.12949384207015    1.44566988378734   20.29371131958397
Cl        5.82812268331425    4.47682963239053   20.58417517403832
P         8.06335836562042    3.50393543221597   18.32001022727066
P         6.67023843551507    2.01187533550903   22.68878463307254
C         9.27545546387251    4.39831508674634   21.67131323875609
H         9.94666606192856    5.06543593573882   21.12322640205907
H         9.47253824635753    4.53213167669198   22.73842032702002
H         8.25275882448786    4.76027609199754   21.49195184524961
C         9.43267338683385    2.95766090178349   21.24166358750327
C        10.56778158948116    2.28397252146970   21.38329711264733
C        10.77739484716831    0.85006080458439   20.98218351479687
H         9.86277034159277    0.41375660161343   20.59002195410697
H        11.10906984489854    0.26613056811824   21.84133788110632
H        11.55393553579496    0.78261291626722   20.21933932784060
C        11.81600118488118    2.88523229236480   21.99280918375970
H        11.73473486405348    3.95823609707552   22.13856783582797
H        12.67298329896142    2.68973599950427   21.34843926740587
H        12.01748887891624    2.42253367475439   22.96011083741818
C         9.79839588678006    3.02808960389583   17.74571344891801
H         9.94768560846027    2.08001592734062   18.27976414884321
C        10.02384737945079    2.77865496258861   16.25515822040097
H         9.83677826060524    3.66755747573788   15.66065637081267
H         9.41168885716739    1.96736194767952   15.87474059799399
H        11.06680915737327    2.49713188805639   16.10861821402906
C        10.85449377958297    4.00388742288993   18.25723701653820
H        11.84734704723628    3.57488191409156   18.12422068638399
H        10.71740511606445    4.19655940256970   19.31580896728820
H        10.82318451357916    4.94355935025408   17.71045193479453
C         7.71641002044702    5.27974985829329   17.80792396995153
H         6.62386084633160    5.33040680447824   17.89963125225134
C         8.27981741180987    6.30232502094093   18.79265009457687
H         9.36303474962307    6.25127835326666   18.86658961365273
H         7.84644603230910    6.15507098979023   19.77801266084324
H         8.01011936765723    7.30714215015598   18.46696410941860
C         8.10286883348451    5.65800780097137   16.38099056304791
H         7.67752951105726    6.63363457182734   16.14456082869615
H         7.72477340443670    4.94729655077823   15.65100649848653
H         9.18226894256135    5.73581534556894   16.27501860698872
C         7.02402532518515    2.60241287248353   17.04379403387109
H         7.41695376401461    2.87144466885906   16.05774268537849
C         5.55404721550190    3.01138838390166   17.11180515027597
H         4.94714327259626    2.29982680809276   16.55389025623662
H         5.38760372576170    3.99794691196551   16.68590501174008
H         5.20774673627379    3.01481031768226   18.14360258093548
C         7.14999666554033    1.09073804891297   17.22388538052370
H         6.63863326277950    0.78282208453529   18.13307806280961
H         8.18720482449730    0.77801460338309   17.30744026204792
H         6.69639010962081    0.57633750639690   16.37754396588644
C         7.91232074602483    1.05993824532823   23.74672032539929
H         8.52394158410717    0.57404998033874   22.97491504456219
C         7.38152909048271   -0.02051768688531   24.68793920133194
H         8.22908996093327   -0.47126207721818   25.20467101718652
H         6.86497978014679   -0.81392787903149   24.15761936233995
H         6.71618323924091    0.38802279805351   25.44229649601321
C         8.83096187333420    1.99542352898608   24.52776887761854
H         8.31429161564964    2.43938306878305   25.37568822899190
H         9.21310234623100    2.78225080550242   23.88660754970323
H         9.68356212797971    1.43698789211977   24.91361241807545
C         5.73066700280878    3.21357053122347   23.78766510376447
H         4.87014586043379    3.46787928933990   23.15530629856555
C         5.21441810622265    2.65644301018487   25.11117900706072
H         6.02848134874608    2.50271094139394   25.81549024373422
H         4.67615836190782    1.72136747001410   24.98130144835898
H         4.52622467930492    3.37603386159360   25.55522896090975
C         6.49019999319446    4.51703687903834   24.02732208834429
H         5.87464590682765    5.19105686039037   24.62331433517052
H         6.69216294375072    5.01509083961181   23.08305578008690
H         7.42677057510793    4.35947815434071   24.55554552095350
C         5.35143572971394    0.69785894366038   22.45354121554286
H         5.10983085497923    0.29829734794125   23.44391325737501
C         5.88427647276973   -0.43989067544188   21.58471909503411
H         5.17864416021442   -1.26977721873471   21.58481594337048
H         6.84646092271397   -0.80098938913697   21.93737683077203
H         6.01643448932664   -0.09403554292930   20.56202093035260
C         4.07841772583599    1.27147859983962   21.83500371522392
H         4.32222962387189    1.90691250852233   20.98547186504880
H         3.50651434077756    1.85446347631142   22.55284188234375
H         3.44329758193918    0.46120361912131   21.48007443802982

