33
CSD_code = SICNEZ | q = 0 | S = 0 | Stoichiometry = C12H14Cl2N2O2Pt | MND = 4
C         2.41240072175999    1.18658104613538    7.14063157605218
H         2.43003325623841    1.04637856996615    6.06497387557111
C         2.85967638221108    0.19957188585324    7.99721473944319
H         3.23932224776468   -0.72799094688145    7.60014755631264
C         2.80550591500797    0.42903427661480    9.36432109334841
H         3.14478007085690   -0.31965729025279   10.06332928669317
C         2.30672310656307    1.63797372483796    9.81515059661583
H         2.23618677150783    1.87392863437068   10.86383975412512
C         1.87680176299209    2.58109894665420    8.89344258628883
C         1.33097315266935    3.91389650584692    9.31842055003288
H         2.02129117529517    4.69056025147782    8.94859029679309
H         0.35165005129430    4.05308024107692    8.82422979533860
N         1.93254504958023    2.35052447074478    7.57783150698547
O         1.20580142640163    3.97154393208361   10.71915996158862
Cl        3.37723047663323    4.78204642553327    6.46081377535828
Pt        1.33753983248010    3.68999708652974    6.26833640386656
H         0.88047138207123    4.84345458737777   10.96321502248528
C         0.26255514931741    6.19343468105735    5.39609438703889
H         0.24508830085465    6.33371919927903    6.47174308488685
C        -0.18493968619277    7.18033802814089    4.53949914138347
H        -0.56455385236338    8.10791895934423    4.93654611273518
C        -0.13098840115766    6.95077410452997    3.17240254439274
H        -0.47041884743024    7.69939262697194    2.47339264526948
C         0.36779701570562    5.74183348616424    2.72158720916056
H         0.43817302807203    5.50580154376520    1.67290725868193
C         0.79793344891423    4.79880805017314    3.64329709273828
C         1.34370339444175    3.46598652072362    3.21831453431564
H         0.65340315561189    2.68932155232125    3.58818161970693
H         2.32304480150008    3.32681966420107    3.71245886334099
N         0.74242674668404    5.02949022876652    4.95890454077551
O         1.46880700610730    3.40831839489069    1.81757483446838
Cl       -0.70260580304234    2.59800929421463    6.07573300735939
H         1.79414176165009    2.53641131748736    1.57351474684711

