33
CSD_code = SICNID | q = 0 | S = 0 | Stoichiometry = C12H14Cl2N2O2Pd | MND = 4
Pd        2.57735528169916    3.66947877658524    6.26036553398840
Cl        0.47660586973475    4.58230575836498    6.24640170385602
C         3.67236747783978    6.17478397370990    5.42404416935243
H         3.72036721808655    6.30700118744819    6.50410750153042
C         4.10823244595760    7.15867144271728    4.55528428276934
H         4.50738316529006    8.08303863748485    4.94073536329897
C         4.01970207535284    6.92787927961933    3.19001791184993
H         4.35090074186329    7.67388706394123    2.48419196989224
C         3.49949866784770    5.72431023012061    2.74650046923484
H         3.40657919734153    5.48998217585115    1.69912731652370
C         3.08323268587715    4.78691267791059    3.68028812605004
C         2.50538609364938    3.45173738756760    3.28860008237826
H         3.14596191143388    2.66115382575317    3.73842558266066
H         1.48551479108124    3.38263809220007    3.72781586882156
N         3.17382144872811    5.02085683341343    4.99124117177242
O         2.46118032612293    3.32917739234910    1.88682313229183
H         2.08926486507179    2.47107813729546    1.66036417354931
Cl        4.67796641216456    2.75653253453980    6.27406702989935
C         1.48113349837733    1.16462322522389    7.09856186667867
H         1.43232928300208    1.03156314150787    6.01865357079081
C         1.04511421431528    0.18174482430033    7.96841288818107
H         0.64501164208831   -0.74263377372800    7.58397438619847
C         1.13482614903900    0.41349793279332    9.33343572165352
H         0.80355859176925   -0.33169649865428   10.04009060323291
C         1.65634755077729    1.61698167474728    9.77564541872106
H         1.75015845870445    1.85208822290438   10.82276886345062
C         2.07264324562767    2.55333207222796    8.84082854659941
C         2.65172730139122    3.88838081211760    9.23117929881355
H         2.01158136508769    4.67916580383374    8.78100487408174
H         3.67146931982764    3.95623769607381    8.79151612781169
N         1.98092023712036    2.31848602288198    7.53009117699937
O         2.69662930279992    4.01206864845282   10.63283734130646
H         3.07002916493027    4.86973478844508   10.85839792576092

