56
CSD_code = SICNOK | q = 1 | S = 0 | Stoichiometry = C24H22N5O3PdS(1+) | MND = 4
Pd        4.11049908314109    3.38033567300619    6.20650528985802
N         3.95743192163337    3.34284555048708    4.12649191370283
N         5.65119835881099    4.56609326334380    5.80456159518478
C         4.96458954587513    4.05599902040973    3.57686072401547
C         5.13703697210811    4.17180470122985    2.18125953875019
C         7.54540256511585    5.95906755159248    6.21397152436998
H         8.17813021116351    6.43195228380590    6.94727358633209
C         7.78188078477061    6.11485962417995    4.86789719986958
H         8.60572887148691    6.71259624785920    4.50970251019307
C         5.86596447410568    4.71076843206400    4.47214215024323
C         6.47098016919825    5.17704227029279    6.64485822588093
H         6.27713995220394    5.04849232286440    7.70393695553017
C         4.20887672609594    3.50639114878543    1.36105711209677
H         4.30526535198118    3.56541842015892    0.28769366792303
C         3.18783835891071    2.79117937578534    1.94421913444765
H         2.45841972520090    2.27462622156714    1.34143814290242
C         3.09285757595931    2.73284907483712    3.33825922367191
H         2.29549184144259    2.18300422048469    3.82508369846592
C         6.92781819721496    5.47997777568374    3.95021715023091
S         4.33764793985500    3.52100857507695    8.47301481603311
C         7.08022740267279    5.57398783244922    2.53528177846176
H         7.90024266311770    6.16266752294077    2.15408383301658
C         6.22603438006598    4.94790296003695    1.68811827105007
H         6.35213562324418    5.02702817387120    0.61941650481534
O         2.57959032620618    2.08588770541079    6.34739838753078
N         2.19928845094686    1.82408832013054    8.62551134916439
C         2.10851251690624    1.48980871435688    7.36139283727405
C         2.96567609498454    2.73777437677019    9.19851935445211
N         2.71890330543139    3.00275984747703   10.47871098406758
C         1.28222773882405    0.28236103999106    7.09927608590217
C         1.46823090734239   -0.41733871722943    5.90736431703883
H         2.22264125218047   -0.08437076623161    5.20992453186648
C         0.33001788809699   -0.14681794204162    8.02185548125731
H         0.19394937067687    0.40722635997015    8.93559035862754
C         3.06909985348847    5.39475470759400   11.01373744640984
H         3.11609545722116    5.65330400537540    9.95896651444797
H         3.72595523860959    6.06200493551898   11.56365159396491
H         2.05304597604608    5.54503257378898   11.36681827194716
C         1.58381093394833    2.36503930050029   11.12494343989762
H         1.73881057650824    2.41463297517360   12.20302889570416
H         1.57200134421393    1.31736550303089   10.81494633622985
C         3.51379139219189    3.95070445639769   11.23299464442662
H         4.56104878217455    3.83934814698428   10.93957971338902
H         3.42702051223345    3.69431607479437   12.28985346971590
C         0.25644940976406    3.02134939195693   10.75709209029089
H         0.11004534937045    2.99910223977246    9.68045874572484
H         0.22458790502091    4.05396497800485   11.09294308928854
H        -0.55842308268623    2.48213411902364   11.23154160333047
C        -0.24129812226979   -1.94812603486498    6.55993254645430
C         0.70849198682945   -1.53628753976646    5.63412023134051
H         0.83446420260292   -2.09882367326067    4.72154812883478
C        -0.43567521462359   -1.26339425170562    7.75294940840901
H        -1.18338524059618   -1.61629273706658    8.44686144556772
N        -1.04839949251186   -3.11970822966075    6.27212547355231
O        -1.85142760727018   -3.45829675765422    7.10931929030990
O        -0.86368670588339   -3.67040136811318    5.21139938769203

