98
CSD_code = SICNIC | q = 0 | S = 0 | Stoichiometry = C54H39AgN4 | MND = 4
Ag        2.46073169800950    0.50173226914099    0.64355852729089
N         4.19189551171239   -0.15729741426283   -3.14198250702496
N         3.70360557095131   -0.64105242709160    1.76884218897501
N         1.43749371038936    1.12452560632345    2.33981761625063
N         1.25905928093694    1.64177205730956   -0.53778477845735
C         3.21149625941433    0.34093245920313   -2.29946609325681
C         3.44044842890327   -0.08886210662352   -0.96826788312885
C         5.01946178671529   -0.85610184214749   -2.41941358162254
C         4.60042386897237   -0.89864709694422   -1.01745106393929
C         5.13936330855307   -1.65207170267030    0.03185837260047
C         4.65929171254196   -1.53306128009538    1.33916781089931
C         5.08889040177326   -2.32626397478816    2.44508645619978
C         4.41666586109732   -1.88951472283975    3.54015594348958
C         3.55636232727211   -0.82676596039689    3.12089315578552
C         2.72644983975519   -0.11785896029973    4.00030589013738
C         1.77256255635662    0.82751893118225    3.62497935042791
C         0.98689067339406    1.63388608574855    4.51797915679093
C         0.17236055489908    2.39685444263478    3.74972778478003
C         0.45152031375616    2.06279606033459    2.38033388158469
C        -0.17623872063089    2.60389514243233    1.26010369339179
C         0.17347094817613    2.34418860532857   -0.07343406019225
C        -0.58252432126085    2.81872570899864   -1.18834069848355
C         0.06440259148860    2.42396201454854   -2.31643570283165
C         1.22678703027447    1.70756101170562   -1.90929081146025
C         2.17717025443566    1.14882330410166   -2.77598545787946
C         6.22543374028023   -1.43194872052230   -3.00857256553625
C         6.13593897099763   -2.21172354523288   -4.15752607865915
C         7.27288450652387   -2.76992273014275   -4.71066968928925
C         8.51119932314256   -2.54024037788072   -4.13546962556816
C         8.61174712228963   -1.72985668344521   -3.01647122555639
C         7.47792734318263   -1.17502087554499   -2.45669877300067
C         6.19193283680744   -2.64578512194681   -0.23884441270385
C         5.96250193920119   -3.66508992562875   -1.15920653234826
C         6.95376973210112   -4.57764738078001   -1.45540758705773
C         8.20153822365681   -4.49901037123085   -0.84766340195947
C         8.41924452724452   -3.49724695025851    0.08856479694765
C         7.42772707966174   -2.58519770441676    0.39633391819015
C         9.28793819931907   -5.46014600645147   -1.22062636291564
C         2.86908043977722   -0.39534288437464    5.44458124903191
C         4.07877870668943   -0.17821153662613    6.09574806563217
C         4.20263911754255   -0.42626237252630    7.45029222285553
C         3.12854864462671   -0.90299192248041    8.18964731628087
C         1.92091688069856   -1.12230483244714    7.53536551570174
C         1.78903456600803   -0.86928797999821    6.18448256527595
C         3.25421188997454   -1.18366522396551    9.65595222909815
C        -1.29690612017532    3.53645246276849    1.50018570604591
C        -2.42898228677351    3.12266614562656    2.19657355671705
C        -3.47084230515751    3.99959124873757    2.42701745399296
C        -3.41128400131007    5.31450793655935    1.97882285153678
C        -2.27861363403290    5.72582249152784    1.28818902189749
C        -1.23632715299442    4.85054548151190    1.04725075994924
C        -4.53894179619778    6.26176382757880    2.25388659923055
C         2.09970372054840    1.41663865116012   -4.21652599363103
C         1.97705750745764    2.71810582508467   -4.70002941253252
C         1.92334328458201    2.96042172690738   -6.05818183075184
C         1.98705796708766    1.91641098304447   -6.97410948904872
C         2.11805580927855    0.62104810056048   -6.48962292513178
C         2.17993373265667    0.37154470105992   -5.13289059462213
C         1.94320011311685    2.19249694737043   -8.44611485597791
H         5.80101036564795   -3.12603538627297    2.38732199662520
H         4.47792433878391   -2.26835243648264    4.54164188499776
H         1.06967065362972    1.62744400371778    5.58748122797142
H        -0.53872357613354    3.13276658827553    4.07146708512909
H        -1.50419866361008    3.36253372625421   -1.11720485238509
H        -0.23513679572447    2.58256411188942   -3.33367499430104
H         5.16619943619874   -2.38216784561124   -4.59963933015726
H         7.19430148594207   -3.38712115758461   -5.59411468211661
H         9.39879206856104   -2.98180868643671   -4.56530107475234
H         9.57894134502921   -1.53038730755717   -2.57834453612518
H         7.55692427135920   -0.53174263733804   -1.59276755420087
H         4.99692570437662   -3.73775005710116   -1.63785785911468
H         6.76235890001177   -5.35938566787236   -2.17636177771210
H         9.38031659050349   -3.42431796197754    0.57807286988428
H         7.61916492703153   -1.79818627327845    1.11198514846066
H        10.08055477968178   -5.46384767568374   -0.47615169616554
H         8.89367240029299   -6.46935324362778   -1.32313855519342
H         9.71925003719398   -5.17101753478131   -2.17962217963456
H         4.92191292532356    0.19957150570619    5.53525409133144
H         5.14924960453532   -0.24502709304407    7.93970373655055
H         1.07518955524770   -1.49691127165034    8.09475447190362
H         0.84659690709143   -1.05191386890656    5.68816188439742
H         2.50038800153565   -0.63126543532388   10.21546713721708
H         3.10086841480007   -2.24463252977370    9.85195628279604
H         4.23749341568122   -0.90250075502253   10.02440443509977
H        -2.49362812123201    2.10137085622052    2.54391656655115
H        -4.34639582640361    3.66047971882859    2.96271552365138
H        -2.21078601442812    6.74457733629961    0.93335324408604
H        -0.35907075184719    5.18667546288563    0.51328040974234
H        -4.46164779156123    7.15076356986492    1.63286483129465
H        -5.49830737167206    5.78295420536495    2.06666750798562
H        -4.52025298867171    6.57230930705111    3.29901928504999
H         1.95119497103499    3.54401523612851   -4.00377032844731
H         1.83426258411873    3.97660765696941   -6.41672089913966
H         2.17277933958580   -0.20347335722726   -7.18645275547408
H         2.27847183572149   -0.63902704326616   -4.77007294969864
H         2.92144058096377    2.53054783439067   -8.79032496162510
H         1.67893755185205    1.29665519202833   -9.00304704242459
H         1.22156483382192    2.97539931945386   -8.67224125449468

