45
CSD_code = SICSIH | q = 0 | S = 0 | Stoichiometry = C25H15AuN2O2 | MND = 4
Au        0.40408350222277    0.41077258539423    8.09495661238089
O         2.84197129676205    7.34341851221784   13.85384860050114
O         4.31970129364450    5.93171261496002   14.52033765041146
N         3.37651958960358    6.25145086635820   13.82272383638802
N        -0.18145768623722   -0.86861788530035    6.72956644578821
C         0.98815115481673    1.65080889810681    9.39414210722036
C         1.39232846505234    2.45982964380058   10.19616627823309
C         1.87925601216158    3.40844518072047   11.12039446904598
C         1.31276192745468    4.68765633224945   11.18128442577509
H         0.49299374054763    4.93244788745847   10.52306740903235
C         1.80092151253731    5.61964635187739   12.06848752358507
H         1.38132894087574    6.61224223863329   12.13054625976394
C         2.86261341531599    5.28026269879555   12.90425808731079
C         3.43343483785800    4.01034654465206   12.85734276463687
H         4.25395029925518    3.77943630351225   13.51960163875407
C         2.94283975517054    3.07978255782464   11.97008382329242
H         3.37240290512941    2.09090268826888   11.91754197075404
C        -1.03346714147803   -0.53726637007646    9.16985616039392
C        -1.47214869241465   -0.34578331393018   10.46972485268648
H        -1.01325969431511    0.42652995633874   11.07071637078282
C        -2.48503808761624   -1.12386944592909   11.01233643216790
H        -2.80790454595655   -0.95281709319634   12.02911253524236
C        -3.08331463473849   -2.11806642092057   10.25588292010218
H        -3.87136568527009   -2.72329092971904   10.67952801163750
C        -2.67082205882044   -2.33619841308096    8.95564677742615
H        -3.13946890243461   -3.11255855172072    8.36850363300431
C        -1.65400563157570   -1.55578555419481    8.40893194940972
C        -1.16305326606577   -1.72339258527955    7.04698020529022
C        -1.59276459772208   -2.63968113105137    6.08931432209943
H        -2.38013998369408   -3.33974727679885    6.31406674652718
C        -0.98893248282253   -2.63411497616241    4.84218428658451
H        -1.31114546651611   -3.33829057547570    4.08912911697314
C         0.02434864107201   -1.73485343902453    4.55102123674880
H         0.49303192123771   -1.73189302020799    3.58102737832258
C         0.42571061814027   -0.83454100536708    5.53552571893451
C         1.46156407820956    0.18675833708489    5.44467737718993
C         2.22470778127863    0.40286702773898    4.29887840322949
H         2.06670367463022   -0.19869409420414    3.41559659386601
C         3.18981978288952    1.39127993650222    4.29013349939966
H         3.78133583293502    1.55841821695582    3.40193636957754
C         3.39642590819247    2.16516549530724    5.42022523617420
H         4.15099547380040    2.93838478473894    5.41351254173930
C         2.63764766009577    1.95159959134709    6.56215214378529
H         2.80773350770818    2.56140593133134    7.43819015674933
C         1.66210502908514    0.96939089945985    6.60555912108169

