47
CSD_code = SICSED | q = 0 | S = 0 | Stoichiometry = C26H18AuNO | MND = 4
Au        7.55125747636485    3.18461108198503    2.13403701111344
O        10.71214857781823   -4.69627378683716    0.38183158654718
N         6.83954332346111    4.98525239269534    2.47476273883335
C         8.23708728244348    1.45389417555907    1.79657316080816
C         8.67842705890652    0.35405608437526    1.56795342193822
C         9.19749568076472   -0.93537904591361    1.29531452715573
C         9.26330763145697   -1.40895176242582   -0.01750570235927
H         8.91134627632234   -0.78250971674150   -0.82394994300298
C         9.77016051407648   -2.66071083503985   -0.28107379004558
H         9.82631304748882   -3.03906770127051   -1.28997320019764
C        10.22780377416167   -3.47542192644226    0.75679416622608
C        10.16454203865101   -3.00921820518670    2.06530678267848
H        10.50970960843144   -3.61480040935306    2.88921449395774
C         9.65272224448010   -1.75120124994378    2.32724555680715
H         9.60562812554565   -1.39238109725934    3.34532755007788
C         9.06439354868011    4.26167482251824    1.32234030072783
C        10.24312953529839    3.85968819778352    0.71513896822885
H        10.45254359549658    2.80281384697812    0.62947968460081
C        11.15243106037590    4.78283549908637    0.21966272278646
H        12.06435601637257    4.44146435975053   -0.24905628576511
C        10.89589502287567    6.14036331871508    0.32304322728515
H        11.60420395204164    6.85846080904244   -0.06428835077144
C         9.73096170697738    6.57714891908237    0.92316141924613
H         9.53439678650434    7.63677215779882    1.00215064946715
C         8.81676035690459    5.65134644093653    1.42253098103686
C         7.56740340868510    6.03354656435814    2.06969333529322
C         7.07846072228397    7.31842038997635    2.29803846410579
H         7.63910094749676    8.18362908510924    1.98506488454580
C         5.85640174454342    7.46289321753472    2.93517679922373
H         5.46376392218666    8.45246634612073    3.11915173802978
C         5.13189503918671    6.35262960314088    3.33851718010669
H         4.18160049921457    6.46827721629181    3.83290366704638
C         5.65557866357390    5.08492509410535    3.09194754688713
C         5.06941492455883    3.79208216406551    3.42488877243415
C         3.84278358114341    3.65559142117050    4.07214280408461
H         3.27383802058806    4.52956182854960    4.35531356181473
C         3.34900818171261    2.39686431019992    4.35457296908071
H         2.39804664695899    2.29150008484256    4.85655644471792
C         4.07466360538754    1.27344862282482    3.99301998753064
H         3.68779668343493    0.28881567382875    4.21376505200592
C         5.29593667653372    1.40732581896604    3.34868658461823
H         5.85379475980254    0.52443639405369    3.07026182814843
C         5.82216696955030    2.65381668223069    3.05006996308715
C        11.19931031956481   -5.55895429370507    1.37812090035545
H        11.53386414639014   -6.45428497116204    0.85604432508181
H        10.41702646971725   -5.83098084854753    2.09483078812424
H        12.04557982558902   -5.11757677385174    1.91541072629809

