107
CSD_code = SICSAB | q = 0 | S = 0 | Stoichiometry = C44H60FeN2 | MND = 6
C         0.42951077957693    6.04548318615918    3.17549146822444
C         1.04193782419324    5.47299871808752    1.92774689339104
C         2.10300577951551    5.15833443865560    4.52423165386899
C         1.94363439263574    3.78294294252658    4.76339917708717
C         3.07644187818464    2.98965835222347    4.84909454854013
H         2.98148000776657    1.92682938562697    5.01057766375313
C         4.34052122556448    3.53831497125672    4.71955583864592
H         5.21183550947775    2.90169927252044    4.76989571133281
C         4.48868216848243    4.90020662798512    4.53678827841138
H         5.47972870247200    5.31993401211309    4.44618966953552
C         3.37967093582871    5.72785288480820    4.44757535555069
C         0.54694576538476    3.24312178023170    4.92054482466672
H        -0.06185274671986    4.06643119526849    5.31009068933738
C         0.37958318903928    2.03442257443022    5.84436787711559
H         0.53490034631115    2.27829869198710    6.89412853050816
H         1.06953038572045    1.23637184865950    5.56918655836332
C        -1.04657310825786    1.59049016691755    5.54096378235100
H        -1.26092495365924    0.58372924407992    5.89859550838680
H        -1.75271618114618    2.27669423964478    6.01187269203325
C        -1.14039087573013    1.69943406759287    4.01452040999931
H        -2.14417459920392    1.98133841328300    3.69748272096218
H        -0.90777569955600    0.73848936336028    3.55438312617708
C        -0.09623587947352    2.75553354717686    3.60664427879237
H        -0.55355476640485    3.58436723635608    3.07091775254300
H         0.66477297265680    2.31394003112131    2.96116485203305
C         3.51992963281932    7.21663689035064    4.25335583119783
H         2.51731042561729    7.65025491986970    4.34587911393508
C         4.11898158386635    7.57192183789666    2.87119711161709
H         4.19212542793699    6.69334266879203    2.23057410400060
H         3.48347189883306    8.30272846537659    2.36770136614440
C         5.49048061510018    8.18525960740289    3.15430505883065
H         6.24289432615515    7.40035609857811    3.24394789159467
H         5.80766614669393    8.87160174047822    2.36940615287706
C         5.30186965299162    8.87411822216031    4.50134993803601
H         4.75612477061672    9.80991845023501    4.36751473431544
H         6.24657442906649    9.09928546156173    4.99536790057037
C         4.45612160608646    7.87522325683050    5.28883182453996
H         3.89362175381781    8.35420074092057    6.08934450618049
H         5.10159328003162    7.12414294119747    5.74495599959013
C         1.05439243414051    5.22298921665622    7.82195499391335
H         1.54588099152663    5.16043475504498    8.80027714635875
H         1.42502000263088    4.39025922923867    7.22605345802745
C         1.46250041139311    6.49177129277735    7.12445678444805
H         2.40659919822602    6.41661005512918    6.60382166147736
C         1.01491718564976    7.73734222553514    7.49174994671596
H         1.59705987628969    8.59003731011465    7.14721825869046
C         0.16295038338653    8.01510088498210    8.70494459410350
H         0.46403034273487    8.96440884078226    9.15438083155137
H         0.33045936488868    7.23817255104708    9.45141337693286
N         0.96835643965266    5.95910322322759    4.37677518570122
Fe       -0.00883708397360    7.12597355315028    5.79008505472575
H         1.57283686123440    6.25834190058911    1.38719926974714
H         0.27872817371334    5.06909000865443    1.26668838756758
H         1.75409745600963    4.69018905806724    2.17279773368110
C        -0.71031602322923    6.86352609926068    3.11585255756870
C        -1.36075774983902    7.23573621040812    1.81584030341814
C        -2.03920340457875    8.34731639445218    4.39303937884798
C        -1.63480949607435    9.65138596543264    4.72204838565373
C        -2.58800805896425   10.64824137755113    4.82137777316420
H        -2.29649078491916   11.65870477136792    5.06079610234410
C        -3.92876624845934   10.36283096394610    4.61805505419260
H        -4.66449811591504   11.14958405804197    4.69510842665852
C        -4.32435492899858    9.07157930816187    4.33280418063587
H        -5.37271545787670    8.85220078809635    4.19499455217074
C        -3.39514653268513    8.04444926043805    4.22163933399542
C        -0.16025104561738    9.88372044954156    4.90381947494172
H         0.25965774457358    8.97499513662341    5.37617768896730
C         0.27963955686599   11.07592406474731    5.74918311858524
H         0.11617362804768   10.90736662623894    6.81212236055176
H        -0.24620604624455   11.98311887355844    5.45147458147700
C         1.75437503481493   11.20691951781209    5.38254919921736
H         2.17963738217247   12.16545988765349    5.67781480524243
H         2.32799682824484   10.41592656521510    5.86833079113181
C         1.76714648555654   11.00648413830686    3.86369607959751
H         2.70207755437691   10.56234306199732    3.52584466719939
H         1.65610305842066   11.96783795901387    3.36078158903589
C         0.56138857421851   10.10179385112088    3.55656485067634
H         0.86352659460360    9.14701123771393    3.12705852594858
H        -0.11497898737472   10.58543438432510    2.84978160229555
C        -3.85736150359545    6.63074458930066    3.98886061303965
H        -2.97826196545809    5.98954295268974    3.89886987426796
C        -4.74255939438215    6.47286811708560    2.72766024006447
H        -4.84263479804622    7.41362256404825    2.18674887942370
H        -4.29305482608576    5.74670529446747    2.04956124017282
C        -6.09710911149270    5.95388307180579    3.21789394593237
H        -6.76179309731366    6.78737531314358    3.45150935139688
H        -6.59029755920342    5.32515082100030    2.47730561358013
C        -5.75246856088001    5.20140058774798    4.49859976315966
H        -5.29985379203156    4.23859930196472    4.25473937461442
H        -6.62099132184419    5.02434278318902    5.13183471097638
C        -4.72360636075005    6.11426788882345    5.15741252450472
H        -4.12450524194729    5.60161243027462    5.90797128173038
H        -5.23081917518556    6.94827100364417    5.64485492959789
N        -1.03907430899504    7.37107016101255    4.29683471708721
H        -1.85554594045137    6.37370239660457    1.36841701711748
H        -0.61145099474258    7.59213707400462    1.10977088514897
H        -2.09931010873132    8.01824049889138    1.96599670049230
C        -1.31985022148010    8.07804118236520    8.31692610126267
H        -1.95199747251197    7.78918695932238    9.16429212288076
H        -1.58253955111502    9.10591586967876    8.05544626983342
C        -1.61581992668290    7.22040779633494    7.11619499359668
H        -2.49920573782646    7.54643432269889    6.58382350149096
C        -1.21519915714765    5.91118099009055    6.93900048571675
H        -1.78403212800021    5.31767704823304    6.22953431944422
C        -0.47081138703341    5.11164160202743    7.98295736167048
H        -0.76307908728486    4.06250169915718    7.90955867708453
H        -0.77372747071099    5.45575213065872    8.97371104251022

