51
CSD_code = SICSAZ | q = 0 | S = 0 | Stoichiometry = C25H24AuN | MND = 4
Au        1.95341814222221    0.79545835333738    1.36237224309270
N         1.73728719168810   -0.71474435113642    0.11891325514896
C         2.15085243611206    2.24625483367711    2.56568342699736
C         2.25614448437659    3.16081137395165    3.33878922251063
C         2.40051694853269    4.24365161481542    4.29793824295747
H         2.86980901314488    5.10158025291787    3.80637318049019
H         1.40544378622311    4.54809153413856    4.63741451372255
C         3.24701918705558    3.80853535919118    5.49909287639846
H         3.25128375010653    4.60920408188003    6.24355790441514
H         2.79128351435964    2.92645342923630    5.95522855173239
C         4.68017929836267    3.48000016514826    5.09001025781768
H         5.15246728131501    4.37445101450259    4.67485044470008
H         4.65564934893904    2.72219834354822    4.30310715161847
C         5.50885275750466    2.97023687024100    6.26580749484129
H         5.51389255838886    3.72124039354183    7.06060598214006
H         5.04309680764135    2.06709162874985    6.66806493341091
C         6.94722645433772    2.65559242447438    5.86224545558127
H         7.42340226827414    3.56384182558737    5.48501997499864
H         6.93955920749539    1.92522269790806    5.04976553810612
C         7.75739871028443    2.10699083186913    7.03042668025789
H         8.77908539861282    1.89388438972902    6.72389319744708
H         7.31193574299115    1.18697393156904    7.40329603339805
H         7.78675710955943    2.82666882945187    7.84615284922881
C         3.03672412498923    1.52640835299863   -0.18714310006260
C         3.72087746595362    2.72211133575579   -0.33659239296186
H         3.71705125139902    3.42984051198906    0.48019296458011
C         4.40330883459211    3.02493569114894   -1.50568251477425
H         4.92672672456761    3.96621286695494   -1.59568297693313
C         4.41617857578327    2.12544771498323   -2.55934680387389
H         4.94783762415909    2.36186858696692   -3.46981076651038
C         3.74664653513549    0.92271659371900   -2.44545319977577
H         3.75938486130720    0.22324717297638   -3.26910275987313
C         3.05891101614660    0.61788457408338   -1.27224686587921
C         2.32551844233089   -0.62775868149254   -1.08020065021519
C         2.17961236875622   -1.68456037165750   -1.97709120667459
H         2.64056765104008   -1.64795059479401   -2.95027330952589
C         1.42884925845315   -2.78444883237866   -1.59385038494647
H         1.30586118786410   -3.61153945806361   -2.27804748032366
C         0.83285776796734   -2.83547496476394   -0.34379778793882
H         0.24833550390466   -3.69154264355694   -0.04989327664023
C         1.00381978799363   -1.75860473333645    0.52416292578710
C         0.47178526255525   -1.59937881532557    1.87254061206656
C        -0.32004563479291   -2.56097661481119    2.49762196221804
H        -0.57037349146726   -3.47947264449360    1.98624103842505
C        -0.78966951288950   -2.34120973105384    3.77787927574698
H        -1.40420359582471   -3.08678031046206    4.26155962751211
C        -0.47132643338350   -1.16526708960577    4.43772110901472
H        -0.83873376947953   -0.99410115676590    5.43964868538507
C         0.31609314123640   -0.20704812677661    3.81672974305610
H         0.55881989287515    0.70808691593605    4.33789503661437
C         0.80362376141650   -0.39263537673976    2.53311308532372

