53
CSD_code = SICVAB | q = 0 | S = 0 | Stoichiometry = C20H22N2NiO4S4 | MND = 6
Ni        0.14058890980584   -0.50113201112526    4.16440750802521
S        -1.76534811476192    0.39987820991348    6.02759527138763
S         0.56957622252576    1.67020351227869    4.75928149371085
S        -1.23119367716347    0.00882462924864    2.45690144770550
S        -0.73450104706697   -2.52674859990377    3.68782289435350
C        -0.82032509947992    1.73490344707088    5.73576518052329
O        -1.05302736849190    2.92451041243523    6.27562505490490
C        -2.19107087630407    3.06330272381438    7.10925126554953
C        -2.21470234904986    4.48236746102187    7.65719043965528
O        -2.79641628308684    5.33430650357000    6.70290308211035
C        -2.75427416131465    6.68619020792844    7.07544293929533
C        -1.60793767812899   -1.61871254726496    2.57380164319947
O        -2.53319669994370   -2.12015326558543    1.77628254144221
C        -2.84270208512064   -3.49972503705207    1.90078162220442
C        -3.90957033986952   -3.84990219936967    0.87367643962528
O        -5.17024864468032   -3.51900722374721    1.39621621666173
C        -6.21553317966978   -3.71836635055249    0.48043826139564
N         2.08471144589834   -0.63004886637022    2.94056533270010
N         1.37637523080254   -1.15626150305971    5.50701494855439
C         2.41569422334524   -0.32486658853930    1.70692825315550
C         3.73825250529104   -0.33087023905008    1.24734635836995
C         4.74445527232886   -0.68268265156879    2.11281122417652
C         4.42155531934190   -1.01153399843439    3.44019358882758
C         3.06066122192495   -0.95594268944375    3.80981388777501
C         1.01220176074591   -1.46062133060234    6.73819280147187
C         1.92399647353315   -1.86773457016429    7.71467120310654
C         3.25724017237126   -1.95527380377300    7.39688499188149
C         3.66862512001978   -1.64906752250534    6.08952720110235
C         2.67853045349945   -1.25996926290447    5.16201479318568
C         5.03082301230820   -1.70700464697289    5.67462516543809
C         5.39375357303906   -1.39385328212729    4.40795012317606
H        -3.10039941443701    2.87559199495135    6.52767605650005
H        -2.13491953628992    2.33047828524547    7.92349466157841
H        -1.18436698097009    4.79819551003981    7.87997966123217
H        -2.79831164311455    4.50425236835681    8.59176993337061
H        -3.23116735605079    7.24436390142448    6.27270277796661
H        -1.72086473957628    7.03406608603314    7.19943829965389
H        -3.29761697139779    6.85775407729324    8.01414992788448
H        -1.93282768196930   -4.08966552064417    1.73636278717437
H        -3.22209462720547   -3.70266715951938    2.90832283596377
H        -3.86056211843425   -4.92775838431803    0.64959375508480
H        -3.71453068278609   -3.29026386993200   -0.05349892434346
H        -7.13280997175810   -3.43689056233393    0.99228627738795
H        -6.27637605517108   -4.76935803110124    0.16961034126994
H        -6.08815384154432   -3.09416710646221   -0.41246880543378
H         1.60207203960338   -0.06163883958668    1.04357128244810
H         3.95109887015587   -0.06608568899992    0.22358070806138
H         5.77645769891246   -0.70930150860754    1.79293993552178
H        -0.04412882965591   -1.37301992715777    6.96932818268688
H         1.56854660885559   -2.10200920956748    8.70548070138416
H         3.99083690970975   -2.25387469153887    8.13151000801762
H         5.76955794310645   -2.00381688798390    6.40458679950791
H         6.42956706737467   -1.43139375276295    4.10355962238502

