72
CSD_code = SIDBUF | q = 1 | S = 0 | Stoichiometry = C32H25ClCuN5O7P(1+) | MND = 6
C         3.97774939706717   -0.14254587250850    2.97622521727826
C         6.08048292712672    2.64581404953469    7.01075220565216
C         4.50939827911430   -0.06349601695101    0.50225342585971
H         5.54547746531620    0.20818031254192    0.65496053250385
C         1.34836672457151   -0.88789176654040    2.28363688749153
C         2.31332109280986   -0.64891225443107    1.25073300507005
C         3.63496254769532   -0.27905308513968    1.58362334593172
C         1.74954131479193   -0.84699924762621    3.63512819438349
C         8.90748646582469    2.62707586438979    6.41945378334243
C         3.07997136394857   -0.46463553818077    3.94976774334658
H         3.35221602123058   -0.38595425853094    4.98953234825216
C         7.11931888977826    1.33213107179279    4.49885872291733
H         7.11650114434709    2.26254072703517    3.92545882965178
H         7.91896275858941    0.68458082069438    4.12470117603689
C         0.77859998781142   -1.12012628749537    4.61282319493049
H         1.05244577996808   -1.09503200898103    5.65683190703501
C         7.72505521493039    0.09407166641586    7.15700436655226
C         5.77173358128565    0.63171142545896    4.49181303210560
C         9.62395330143771    3.09169826061095    5.32205614731946
H         9.31218368806259    2.85999278571228    4.31469129327374
C        -0.51152240130222   -1.39886316929814    4.22589182852842
H        -1.28283116722514   -1.61450808207985    4.94701016008678
C         7.07238032424697   -1.75479831163298    8.53100432452204
H         6.31979630684448   -2.27619575912261    9.10194946742110
C         5.87520084229563    2.60658148514717    8.38708177669599
H         6.46048617307497    1.94219751486031    9.00714294351962
C         9.01798846319078   -0.42018168997763    7.06756615027226
H         9.77494290053308    0.10964413356253    6.50452380597414
C        10.47046285772625    3.70006790922272    7.89946066755235
H        10.79987020991800    3.93576266289882    8.89927368763749
C        -0.83549165608063   -1.36884882196409    2.86907239642343
H        -1.84437175998457   -1.54295099360241    2.52553302836047
C         4.05716083147786   -0.21744244534578   -0.78633026339071
H         4.71263126245646   -0.05919053059831   -1.62736511347695
C         2.72326672096700   -0.57879359209679   -0.99922622962274
H         2.33190506258132   -0.70878796387240   -1.99706464360660
C         6.74720601950193   -0.57442094042347    7.88695210871355
H         5.74374492379007   -0.18052628330617    7.93004698561891
C         9.33566572470917    2.93584194127181    7.70988672511623
H         8.77690544373164    2.56830088932584    8.55978767660788
C         4.36381117682897    4.30483494310607    6.79111975409062
H         3.77545632694165    4.96448065589034    6.17240383270153
C         4.90775541590855    3.41533169535392    8.95599887991138
H         4.74344933801177    3.38360335277921   10.02199426838092
C        10.76099839739357    3.85692440711614    5.52032290174012
H        11.31744120891389    4.21509670394077    4.66806447010598
C         5.33019908146202    3.50301936648890    6.21170226236766
H         5.49022552121743    3.54462547399559    5.14413359245549
C        11.18359417991243    4.16232597398688    6.80327941136317
H        12.06942110608865    4.76001250041122    6.94983332664049
C         8.35711379150260   -2.26870064099078    8.44453324670225
H         8.60358311488246   -3.18931149225028    8.95018158610645
C         9.32786369337218   -1.60416271055783    7.71042327299569
H        10.32687595777551   -2.00593054687106    7.64249733674893
C         4.15155825118789    4.26116431544059    8.16020772975706
H         3.39571185506056    4.88800302743651    8.60677441837487
Cl       -0.41037873917402   -2.92204449637078   -0.02163507196686
Cu       -0.40973720020820   -0.78007644515197    0.24289651175908
N         5.25056624415368    0.36412879944352    3.28159272471740
H         5.79553801259147    0.63749357988502    2.47440381607428
N         1.89089826207622   -0.78013727469650   -0.00979326946752
N         0.07204409666878   -1.11626286657665    1.95254768579810
N        -0.56288944364552    0.44797240818319   -2.02957130685257
O         0.34762365810041    1.01695764219511   -1.47231224466209
O        -1.00820145148696    0.70618806715291   -3.09811105030686
O        -1.07790057584557   -0.57474433371832   -1.39994646013490
O         5.27309805347365    0.37645183478482    5.57309829628315
P         7.39334420051090    1.64163991799909    6.29222798443693
N        -0.32308456258786    1.88662343679065    1.29593823576799
O        -0.83836941568902    2.93937265444861    1.50142797086076
O         0.82587416489873    1.60435658895596    1.55698925229951
O        -1.08490874919369    0.95132485995640    0.80077379330472

