93
CSD_code = SIDDOZ | q = 0 | S = 0 | Stoichiometry = C45H39ClIrN3OP2S | MND = 6
Ir      -10.38818580611377   17.96601657368341    5.86936980901249
Cl      -11.56463957731365   15.93560439301366    6.15142537924096
S        -8.20406048401234   17.01214890614633    6.20887965196728
O       -12.17113441348257   19.00636253004790    5.68031455780766
C        -7.44370561408138   18.56748380309072    6.13474587447901
N        -6.09716317688054   18.58165008451203    6.31391585848923
H        -5.66547521074015   19.47366312178866    6.48697586928355
H        -5.68705083354806   17.76850205407769    6.73959699052619
N        -8.03612416272364   19.68176169635029    5.86890050462821
C        -9.84918498319519   20.83663950135482    5.18885218968078
N        -9.35899205341606   19.69212351777110    5.57800647023061
C        -8.92733351509649   22.02624386385001    5.16188458276387
H        -8.08292699281739   21.83163716272231    5.81727987359504
H        -9.44677018207827   22.92192333098419    5.48995343756289
H        -8.54755672640605   22.18008092407382    4.15266046691845
C       -11.21534402869782   21.03173023191778    4.76042332920965
C       -12.27936311296521   20.12392208565561    5.04028870155014
C       -13.58456970628600   20.47506605149621    4.62123351680245
H       -14.37710906221305   19.78826722075166    4.87819962505624
C       -13.84061596548444   21.61857218868413    3.91444959684197
H       -14.84900398460068   21.84499633158759    3.59942387340007
C       -12.79392697316091   22.47780663043226    3.59044570826959
H       -12.97895743127462   23.36886974105237    3.00985854673408
C       -11.52289216981753   22.18683533515322    4.01883871941021
H       -10.72857515605525   22.86107697738326    3.74273237046247
P       -10.44506203689267   17.45920861688295    3.58367839015747
C        -9.21720498830942   16.24003217458876    3.01314680124246
C        -8.40229642934585   16.42417090471452    1.90184444882701
H        -8.46244049578563   17.33596116873305    1.32413442933080
C        -7.51321998060678   15.43184078610056    1.52683022889726
H        -6.88136854005330   15.58095024625642    0.66280821104943
C        -7.43328329131496   14.25426545729045    2.25071349511913
H        -6.73388681776030   13.48601898965256    1.95461680354225
C        -8.25288023726677   14.06281881232276    3.35130400816098
H        -8.19701200233576   13.14418790812406    3.91596053307282
C        -9.14222812820168   15.04929103182461    3.73213713698935
H        -9.78378383411412   14.90592985763898    4.59046400822894
C       -10.16691467513228   18.91209424697045    2.52800631834536
C       -11.19982637094386   19.50651822681632    1.81275962331591
H       -12.18523127552752   19.06310932323304    1.82176577700878
C       -10.96918885788058   20.66835923481716    1.09848591937061
H       -11.77704413068835   21.12663582631078    0.54784367352266
C        -9.71074171608173   21.24565581205610    1.09383203638380
H        -9.53390157064674   22.15283783052731    0.53471218593567
C        -8.67885439689381   20.66255498474267    1.81272128756676
H        -7.69523564141004   21.11091179628407    1.81176463706409
C        -8.90663011566972   19.50761489203265    2.53609355733586
H        -8.10706764447303   19.06013041364172    3.11259744045888
C       -11.98013753047022   16.76208226591716    2.89333647174765
C       -13.19671189587181   16.94178203094597    3.54062837110449
H       -13.22807830643882   17.46849173964457    4.48177236158066
C       -14.35659495613564   16.43029922970559    2.98607864427829
H       -15.29916914728534   16.56658067165079    3.49561880681066
C       -14.31061470801308   15.74044209984503    1.78672831553466
H       -15.21639651908737   15.33707707949666    1.35773599367222
C       -13.09937640273573   15.56313517952599    1.13732458408840
H       -13.05992618654288   15.02397283994618    0.20176360859903
C       -11.93633655072767   16.07066585286131    1.68538754219868
H       -10.99259055144507   15.92698296846070    1.17752818090654
P       -10.52706258866319   18.36124428813944    8.17502400341512
C       -10.09426820201171   17.07723026363037    9.39663276683525
C        -9.76961495883476   15.78202047123428    9.01842765881499
H        -9.76946642008424   15.51023382009098    7.97429963372486
C        -9.45862800618607   14.83886290294456    9.98368360553714
H        -9.20651171079470   13.83270851866978    9.68378673473599
C        -9.47258581503929   15.18133208584909   11.32417208801824
H        -9.22935200051395   14.44434653070616   12.07569440098695
C        -9.80404593537918   16.47288327932253   11.70513650726736
H        -9.82022105823784   16.74230709019979   12.75146333204950
C       -10.11649708318015   17.41782213758085   10.74784841367765
H       -10.37617878709383   18.42443649191734   11.04587129499705
C        -9.44572840453130   19.73819786144477    8.65684654061129
C        -8.18025230193678   19.50126664636321    9.18355533444659
H        -7.87433467183685   18.48702270496389    9.40156504909573
C        -7.31998250924053   20.55709890246722    9.42373707019665
H        -6.33947526198379   20.36757273851594    9.83684791808001
C        -7.71160192920010   21.85378039279462    9.13428568884254
H        -7.03890764178203   22.67717739052026    9.32496882661620
C        -8.96319230960814   22.09359522334974    8.59010063110419
H        -9.26583608335238   23.10345232336138    8.35423167687890
C        -9.82288548759104   21.04108668256317    8.33904636421511
H       -10.79158576645552   21.22011896997125    7.89088585228504
C       -12.17542704558864   18.83521029187517    8.78686962256523
C       -13.26009449637881   18.09967971340089    8.31841172774993
H       -13.09578726476679   17.31428096321155    7.59592222761767
C       -14.53581481201907   18.37964197621688    8.77109834605856
H       -15.37443253071249   17.80979967894631    8.39884470245817
C       -14.73921492311516   19.38746066963671    9.69930550224930
H       -15.73622658010873   19.60966657152390   10.05119077527752
C       -13.66025137692614   20.11031430323854   10.17962990204069
H       -13.81356392364311   20.89241752099525   10.90960894574480
C       -12.38081190966062   19.83764450412606    9.72899740528582
H       -11.54876294981319   20.41329133616146   10.11103011194433

