66
CSD_code = SIDJOE | q = 0 | S = 0 | Stoichiometry = C23H31B9O2W | MND = 9
W         1.02315893406269    2.61392615934747    3.33144851984365
C         1.10500238414435    0.43021586440564    4.27599060459425
C         2.55887212581579    0.17435480061618    4.67574502519585
B         0.70008537053339    0.42472659976081    2.63031384590274
B        -0.74963750403208    1.38662702558795    2.36535574861427
B        -1.11790389125331    2.10557655262872    3.94262716449840
B         0.11926923445861    1.46000437503837    5.13151129824615
B        -1.51834737458836    0.76754807573068    5.08371192470656
B        -0.12052895272379   -0.29486315926107    5.27633110697535
B         0.25309772734549   -0.93599546268253    3.70776689889282
C        -0.88159116479834   -0.30242788950190    2.61461852078103
C        -1.28107163140790   -1.15775229792876    1.42832052773242
B        -2.03220356085517    0.68314213307618    3.38484414383692
B        -1.42865691309710   -0.75795803720548    4.18016386254635
C         2.29592849822813    2.33693729458637    1.85331038771977
O         3.04074570505875    2.26832773744042    0.96612095238254
C         0.65074781491671    3.98170669374590    1.97158849597445
O         0.54113958327585    4.75595153492781    1.11990055577913
C         2.28594649466251    4.31904394723961    3.76237495803232
C         2.94256421786379    5.51092330390768    3.27938112117910
C         3.20119985504684    6.54503097966802    4.18610168240309
C         3.83846552251485    7.69797447152936    3.77319693613818
C         4.24049512926506    7.83962135650862    2.45467680948299
C         4.00767660461024    6.81401846373569    1.55336777263872
C         3.36353356898055    5.65954370567007    1.95650631603967
C         2.21572826374010    3.57676912817589    4.82856248683607
C         2.78468067164163    3.58475268683621    6.20149702070340
C        -1.92379692533641    3.52201813110259    4.11264381836260
C        -1.13999341156716    4.57260380762285    4.84666279300845
C        -0.61960531332770    5.68743101680600    4.19420548290793
C         0.05945185945862    6.67242252932735    4.89191955526782
C         0.24642725116151    6.57539446956506    6.26282470601135
C        -0.27591746337868    5.46598829063812    6.91976541222803
C        -0.96025478543019    4.48620995496384    6.22781955747494
C         0.95915927085628    7.64834779028928    7.03205005280627
H         3.25167056365584    0.85061304717071    4.16003259783859
H         2.86076934940076   -0.84634088920577    4.43576169650182
H         2.69545446378410    0.30656841400328    5.74958841869028
H        -2.20793660315780   -0.79785266060704    0.98508223744597
H        -1.43255938141310   -2.19518915113146    1.72375557302113
H        -0.51402452549199   -1.13889982003944    0.65522989890325
H         2.88574641512771    6.43306790933715    5.21144128904744
H         4.02683819703297    8.49056184334660    4.48350195338635
H         4.73671237938077    8.74328424016415    2.13296297683353
H         4.32758122458798    6.91554083523721    0.52681527753522
H         3.19853976414718    4.86346756945454    1.24649151840199
H         2.95745045675427    2.57984334835859    6.58467042124060
H         2.08320641222759    4.08551564986369    6.87085818947839
H         3.72779729474878    4.13527885727085    6.21476164095650
H        -2.85182792292088    3.35166362692656    4.66486048254851
H        -2.21028858125660    3.91935524714808    3.13419633071558
H        -0.79378189768270    5.82097075455471    3.13574234753607
H         0.43806158868890    7.53370732570450    4.35980794395672
H        -0.15846097842520    5.38247610184310    7.99233865195418
H        -1.38347035200640    3.64847823699585    6.76277586351953
H         1.71577929400338    7.21929792675913    7.68780992823177
H         0.25303344152856    8.19464102144455    7.65737953587580
H         1.43701825603158    8.35571072246919    6.35905528279224
H         1.43672238477341   -0.01194647873028    1.80990854866881
H        -1.09774631637849    1.72932685122400    1.28626365836718
H         0.49431029016749    1.94850728416993    6.14277819526159
H        -2.28935077700763    0.95315690381547    5.95307496203630
H         0.21501691224612   -0.85303366622727    6.25389394168698
H         0.79382328608176   -1.95543880863465    3.49531809605778
H        -3.13483678078541    0.69454596641615    2.97927090119351
H        -2.10751505380692   -1.70952024298339    4.28584557420732

