51
CSD_code = SIDNAW | q = 0 | S = 0 | Stoichiometry = C20H22N4O4Zn | MND = 4
C         7.16936542726330    4.53245357574196    7.39855705856694
C         5.76739080674031    3.96326391419858    7.63226241745281
H         5.08170312811081    4.40978200311934    6.91215444805853
H         5.77815462470548    2.88688507581833    7.45910968413292
C         5.44847138966485    4.34081153953148    9.07443874741332
H         5.29668228223536    3.47902713824336    9.72492621448592
H         4.57765989094869    4.98930711316084    9.16798319415673
C         6.68725537304269    5.09643644683864    9.50809253010509
C         7.93804623989547    8.61025482718523   10.05720148046076
C         7.55200626377368    9.88362079238136   10.78014427505407
H         6.48679924636002    9.85980074779333   11.00911786939231
H         7.73789831619863   10.74404715268067   10.13681451394881
C         8.43595193705798    9.85154581040322   12.02185535725278
H         9.11576830845464   10.70119068099304   12.09051879941580
H         7.86712993372323    9.80411192236079   12.95040835857768
C         9.24580853244660    8.56100527353945   11.87062160035080
C        10.10684523169522    3.72876248915504    9.90764361673108
H         9.75543214006920    3.65254775812913    8.88775019093034
C        10.65999615819478    2.62825434182465   10.54700839047143
C        11.09003084862133    2.80139101239452   11.86048269063055
H        11.52090845310478    1.97081083801729   12.40178571172812
C        10.95959238517989    4.04303016105331   12.45437585543421
H        11.28707918929201    4.21181822738213   13.46795456426921
C        10.39323656044178    5.08081851784178   11.72933465599361
H        10.28112324476327    6.06827427674505   12.15583049319528
C        10.78957370476342    1.30951047836129    9.85393853377619
H        10.27945178628987    0.53217667794779   10.42058889783893
H        11.83855311461509    1.02735789536628    9.77365492645340
H        10.36297451258240    1.35445552714304    8.85583873694291
C        11.18035412697929    7.80290196368739    8.47498614478088
H        11.26649824631747    7.98157062642361    9.53807415700942
C        12.03288213983998    8.43648724267424    7.58183242044333
C        11.86304256224908    8.15670289260146    6.22801173838051
H        12.49896583244008    8.63170690105165    5.49417548805418
C        10.87741133513094    7.26738026870680    5.84202709749957
H        10.72315121212680    7.02504712897699    4.80252231529045
C        10.07611446275566    6.68611344976885    6.81331899105326
H         9.29943147632760    5.98042564312252    6.55196097033516
C        13.08960226266835    9.38375797722697    8.05320062336053
H        14.07456202816097    9.03482545033470    7.74659307039365
H        13.07148066345032    9.47460186607179    9.13549712802776
H        12.93568554412251   10.36888679151721    7.61554667292733
N         7.59436651983381    5.16440064635397    8.52383319412146
N         8.88102401718846    7.92999675580556   10.72351018245142
N         9.97149525743500    4.91960085467467   10.48132338989599
N        10.22581611726574    6.95639105519078    8.10402323550324
O         7.80985244465708    4.41657839134651    6.37547619300938
O         6.91164536005113    5.59014579135736   10.60692064036605
O         7.50232995185168    8.19954165511559    8.98782163519166
O        10.09632141881836    8.17424903046019   12.64328710895225
Zn        8.79197799008942    6.37043540218048    9.52256378972694

