48
CSD_code = SIDNEA | q = 0 | S = 0 | Stoichiometry = C16H23Cl2N3O3Zn | MND = 4
Zn        2.21947593399643    0.02321721832306    4.49056674308210
Cl        0.07629870377183    0.57743309565504    3.20513350040880
Cl        4.70449119939031    1.85458044934636    0.85552722095681
O         2.36594496294899    3.36550291069042    6.37858610422679
O         0.82510553796283   -0.83211922542829    6.13627978228168
O         2.98902278888273    0.81747047382172    2.95121846026490
N         1.66561626430761    1.22313013029561    5.96963509441438
N         4.10932594251914   -0.50419146343943    5.38965424797269
N         2.30033905084265   -2.04172184440115    3.64110807719266
C         2.30114179691604    2.37777504641710   -0.24697592333533
H         2.85884664574047    2.79475368849817   -1.07103303883531
C         0.19767728487120    0.88183309560872    7.78657013701590
H         0.46808582359111    0.29938002223712    8.66782710755673
H        -0.88208183118074    0.80752121524775    7.65654846300335
C         4.53961190751920   -1.67567553620349    4.62836819394263
H         5.36520047520588   -2.19375480204821    5.13801401044731
H         4.89880432415184   -1.32830503364468    3.65927898084751
C         4.06205226973013   -0.80396361268459    6.81672602073427
H         5.04097162271655   -1.14090053281431    7.18152732360078
H         3.32059298452518   -1.57256003086685    7.02243471892026
H         3.77779861277083    0.09345680822646    7.36184867779073
C         1.67999854554477    2.41332000353501    6.64864915010685
C         2.63675753993477   -2.04864141175789    2.21774693029193
H         2.80115847001595   -3.07301594896297    1.86063638934465
H         3.52925593998691   -1.45848362680477    2.03236512933809
H         1.82259205955210   -1.60570402102797    1.64736044219023
C         0.21977606132480    1.81042614732512    0.79476052023769
H        -0.85829673798924    1.77987855883267    0.79494431381698
C         5.03114450153345    0.61220777549646    5.17502634248572
H         6.03978703423632    0.36443135988411    5.52561767694502
H         4.66670254016061    1.48640483491260    5.71029184241326
H         5.05882385251668    0.85987207227659    4.11790136893730
C         0.91474713718837    2.36020141803305   -0.26780711744387
H         0.38138173977070    2.77041895932294   -1.10953507748648
C         0.89369201407030    0.31853023948827    6.56929520640069
C         3.38344328645038   -2.64918935735612    4.41794755083310
H         3.75609565404996   -3.55580466569251    3.91892838891331
H         2.97454850686492   -2.93650042261531    5.38797687679938
C         2.32225571213052    1.29935402655591    1.95436446861439
C         2.97778204818456    1.85631645728618    0.83333752587013
C         1.07559585504930   -2.82046043839667    3.82248723475306
H         0.28306210218350   -2.39626295340041    3.20984887514229
H         0.76184564371161   -2.77444485774526    4.86128112015953
H         1.22709499749465   -3.86624122375862    3.52909406198352
C         0.70706035174346    2.31817590922060    7.83081050931444
H        -0.08398727364410    3.05538702790746    7.69350562298699
H         1.23266225792058    2.56302806399384    8.75356980072063
C         0.91729785883342    1.29273400059211    1.86735094384063

