53
CSD_code = SIDPEC | q = 0 | S = 0 | Stoichiometry = C21H26Cl2N2OZn | MND = 4
C         4.45963614322029   16.14728138013697   12.46052375026901
H         3.56470048049587   15.58685199911878   12.72544044074563
C         4.96273232059296   15.89260106159324   11.10515914353394
H         5.09614038708857   14.89910984954159   10.70854293206540
C         5.20334140990484   17.04941362255977   10.45001623793851
H         5.60163878988644   17.15379840621118    9.45526405853635
C         4.83037517661579   18.14815024514748   11.29542733660365
C         4.87993873600073   19.52517850433753   11.10249168183363
H         5.28159026460759   19.93836013791076   10.18719912341136
C         4.39791540892960   20.35101448275090   12.09851842736302
H         4.42672882859377   21.42357459496263   11.96704706835455
C         3.86170074712823   19.82262935354435   13.27082941875752
H         3.47611115687958   20.49290514912589   14.02540624159075
C         3.81972386402879   18.45705119353734   13.48271817568247
H         3.40196891579529   18.05675014273493   14.39779691931050
C         4.32363284089061   17.61533751700395   12.50202358856519
C         7.39841998617905   13.87532054837703   15.79714888301610
H         8.21823538841282   13.19358887297410   16.05663284394491
H         6.45688310928245   13.41379125046766   16.08470987989165
H         7.50732702127589   14.79819984056745   16.35991258986911
C         7.14181761645057   12.92272757892021   13.63343087840070
H         6.18522992132535   12.50552391432149   13.94234468662377
H         7.92727000194051   12.18119399726663   13.82597411592167
H         7.09872229826554   13.12371979341227   12.56441731404790
C         8.67206238883299   14.74517283167288   13.96487236346311
H         9.49882637476729   14.26279570522628   14.50590095095694
H         8.81841317718583   14.55924671999115   12.89930212136841
C         8.71522540583084   16.24881530236226   14.22257734973852
H         8.48117309491254   16.44143274403811   15.26977310547109
H         9.73226808859789   16.61807832717257   14.01827708606323
C         8.15078969601578   17.03221623400941   12.01976183869526
H         8.15841450547438   16.04352322403230   11.56697565286374
H         9.15271623398069   17.47286151211678   11.93019302657948
H         7.44452308553676   17.64427327110151   11.46537268139191
C         7.58063034611185   18.32984026789767   13.91757325579736
H         8.52987544273033   18.87660785896029   13.86413432458309
H         7.23640795940074   18.30265488132884   14.94718474762735
H         6.83484389463973   18.85278542153304   13.32314463417559
C         4.84274412338216   16.62571345307909   16.49836959616058
C         3.84683964952373   15.63158368445540   16.54443555088757
C         2.78863692339653   15.64992579928562   17.42826252413415
H         2.05843019119518   14.85608860342225   17.40450868994010
C         3.63157501855618   17.69805886159030   18.34022765293542
H         3.55979920331692   18.51761474439203   19.03840246224618
C         4.67881210106032   17.66089212792292   17.44622878427400
C         2.67995557911142   16.68980361211900   18.33465072972400
H         1.85829499388453   16.71694530823258   19.03150596464377
N         7.38832812792487   14.16317526525283   14.36450821783147
N         7.73010950389841   16.96466138850836   13.41543392647908
O         5.84051768390295   16.60468417630848   15.67907498954999
Zn        5.86217642167702   15.80572930940162   13.91747010293009
Cl        3.99265691447840   14.34970987832040   15.39056289737463
Cl        5.86207305687148   18.92233604976724   17.44783903584154

