73
CSD_code = SIDQEC | q = 0 | S = 0 | Stoichiometry = C30H38ClN3Pd | MND = 4
C        13.05472031688550    4.29126446104864    7.54087156957540
C        10.89124336548263    4.93183840308709    8.10608377937314
H        10.30615901487524    5.37734692585194    7.29115302139114
H        10.47277146997951    5.27462152199195    9.05208831743821
C        10.96212985325571    3.40834932085298    7.99806856754921
H        10.87595641929720    2.92008559363637    8.97784422507431
H        10.20123791605876    2.99078757032733    7.34185269481884
C        12.70282239424962    1.93232801184316    6.94249619418434
C        13.72418325192178    1.19564994109820    7.54751497769461
C        14.04788934051471   -0.05211459066307    7.03266147073838
H        14.84131825823453   -0.61845644081683    7.50032406993467
C        13.39052368595199   -0.57865099949317    5.93410970158558
C        12.40893420714709    0.18928324197814    5.32454930508184
H        11.91979545203691   -0.18713305749442    4.43726246869504
C        12.06060095724348    1.44263755009476    5.79974185087070
C        14.50366063467036    1.74571392332060    8.70327207307846
H        15.08252138771032    0.96105045960410    9.18433527237363
H        13.84714962326614    2.20419846602220    9.44210203925844
H        15.20098178255104    2.52160346554108    8.33283016535011
C        13.73942868238065   -1.92983311720459    5.38773660243280
H        14.53037794153324   -2.39454416463897    5.97104021947287
H        14.07363699177721   -1.84316303707583    4.35472088108320
H        12.86638768416713   -2.58178388898941    5.40152223659664
C        11.06320451927322    2.26156077268745    5.03566759153945
H        10.04260847937100    2.07776952837193    5.37804585415274
H        11.11216123615566    1.99806593572637    3.98215532871026
H        11.29277979920542    3.32061642108428    5.12639110394153
C        12.79238387478915    6.62036028978014    8.18908488721786
C        13.28139646992027    7.36938907808146    7.10930933786663
C        13.88149059235731    8.59372984866022    7.36694022136443
H        14.27363013627110    9.16920109439039    6.53945446714251
C        13.99110268288840    9.09654930828002    8.65414058441385
C        13.43597135792761    8.36993299782139    9.69498435009889
H        13.49073641270154    8.76001570358129   10.70109950046566
C        12.83603647791270    7.13744258843262    9.48637700306175
C        13.13377840370028    6.89544274058404    5.69223411718623
H        13.85344858276710    6.08831760541927    5.46412301741653
H        13.30600540073623    7.71584797762836    4.99920642386495
H        12.13443872490395    6.49730665705040    5.51900239001513
C        14.70787512089738   10.38446894214116    8.92014280502755
H        14.25199134899476   10.92030171458515    9.74956289142213
H        14.70582445058470   11.02371039989488    8.04042085600352
H        15.74443507202519   10.17311550653610    9.18572929637569
C        12.25559242931283    6.40691970285412   10.66163559083369
H        12.81189536391310    6.65366166208178   11.56211581180805
H        12.29029096744236    5.33080695727880   10.51984934202136
H        11.21794916427031    6.70789163821657   10.81727989909379
C        15.56323965509626    5.34344133867258    8.63296546295611
C        15.20045855643588    5.14372669898524    9.96014488185987
H        14.40006248687559    4.45735532132618   10.20645059482017
C        15.84367100943636    5.80367144400663   10.99659335270421
H        15.53375829908905    5.63088249827875   12.01870834982109
C        16.87976983572899    6.67900272015816   10.73062703430788
H        17.37432154876761    7.20438459758840   11.53541268977461
C        17.29742417030717    6.85760176221915    9.42330620371558
H        18.12921056938276    7.51509102534769    9.20337969787644
C        16.65406794783469    6.18971358167653    8.39420286907444
C        17.10774833801874    6.32201332569075    6.96361810658615
H        16.54630567317653    7.13542060611730    6.48244182607117
H        18.18247222754229    6.56525409002478    6.90117740049707
C        17.71940268318789    4.00633109335641    6.66424224794329
H        18.75625963970088    4.21955758549774    6.36139373035234
H        17.40488379896637    3.06478486975402    6.20419177802337
H        17.68965685109443    3.90336257935613    7.75219682285220
C        16.98859271537427    5.29417432403709    4.80258870680500
H        18.02195121942783    5.59304451136391    4.57237079114275
H        16.30753593240379    6.07591948646832    4.46058719005162
H        16.75039258225364    4.37958971847751    4.25962708488442
N        12.29574722337804    5.30805422049585    7.96357449009581
N        12.31196167552010    3.19063686249830    7.47456116674181
N        16.81845480559467    5.07589850775901    6.23561707954256
Cl       14.31791700845819    3.56702019810643    4.84566019501681
Pd       14.88287584747111    4.55006240165531    6.91822587179197

