81
CSD_code = SIDRIH | q = 0 | S = 0 | Stoichiometry = C32H31B10I2O4PRu | MND = 9
Ru        8.44289110641561   12.27237557208758    4.31114610294803
B         7.55075046350405   11.24466115691470    2.75351290223403
B        10.50351559117948   12.09979369616140    4.20373243557437
B         8.50267663686571   10.04411781007423    3.47456814442627
H         7.92760663244732    9.12301572103107    3.94483647862071
B         8.65984223268987   12.32301060947018    1.91922602997770
H         8.07275341346483   13.10018937665598    1.24429318531038
B        10.12192772207862   12.73451105497025    2.61630669090946
H        10.60079101159346   13.80416892497474    2.44186915939829
B        10.02611115347836   10.47868938355706    4.21804399964337
H        10.37216185936873    9.83995867789362    5.15102587584978
B         8.57876010153291   10.47736966349604    1.66226639825055
H         8.08640239579260    9.90672250156439    0.75860898889636
B        11.13516862352754   11.20576661915915    2.91224394754416
H        12.30536738230150   11.11129239879497    2.83527386102778
B        10.01170194789144    9.89179627689643    2.53130040759673
H        10.43655584747998    8.82412910744526    2.27428562354247
B        10.10757529501354   11.33527384391591    1.49235675334870
H        10.60086970776258   11.40509565311068    0.42578387115849
I        -0.61648091238457   13.22853919322368    3.54852527854477
I        13.40293909272690   17.82162780903234    9.71313639264850
O         6.42169545109643   13.19026228302421    4.05252922668679
O         6.13822950172152   11.46168196152088    2.69007978194064
O         9.26043492513800   13.96185259603834    5.48869613975161
O        11.18832043062276   12.92412022190528    5.15022864227491
P         7.38431857931507   11.74500188424665    6.35314178315663
C         5.67045668865853   12.47408320168713    3.36157046307917
C         4.22309991742132   12.69455508317193    3.32583263345383
C         3.66277384738660   13.71978347428432    4.08939716520703
H         4.31359010760611   14.37647410861921    4.64512360078245
C         2.29463078736923   13.88281114092051    4.14124835701773
H         1.86255493890779   14.67193322322458    4.73713916771456
C         1.48247756570877   13.01623051049144    3.42827084233044
C         2.02011950966562   12.00374987432727    2.64996610500455
H         1.37460640454396   11.34172160673685    2.09351226288898
C         3.38914309116494   11.84409406945170    2.59837566312198
H         3.82533076890674   11.05650542464585    2.00434295780936
C        10.48334231012242   13.86873446205166    5.70634712992512
C        11.17578993131238   14.78636535768799    6.61512190160612
C        10.44128593496497   15.75721855532862    7.29887687885240
H         9.37717411262439   15.82002301159093    7.13348040962721
C        11.06952350102612   16.61629852307184    8.17572829580557
H        10.49969115746733   17.36395728746222    8.70551008274955
C        12.43772481109210   16.50828200166142    8.36732500661641
C        13.18436488520293   15.55429820703728    7.69433951730993
H        14.24980690550728   15.48445724511698    7.85108912978094
C        12.55366816037996   14.69310161111905    6.81964010192683
H        13.11985679946679   13.94454647669158    6.28745108411607
C         5.61150127687245   11.29701464865912    6.23934822399180
C         5.26709549314894   10.22009676709271    5.42394914863170
H         6.04926631372691    9.65435429732664    4.93747234294451
C         3.94186556786968    9.87458146007937    5.23630100195069
H         3.69012829169210    9.03686567952050    4.60307398377901
C         2.93962917350516   10.60484849111070    5.85434861933028
H         1.90352904016840   10.34114157726534    5.70325428958517
C         3.27313918954101   11.67402710542900    6.66712664661342
H         2.49640985475764   12.24402737479863    7.15556784737597
C         4.59964291143725   12.02063809138432    6.86034858710097
H         4.84354675375887   12.85717369925640    7.49864916556154
C         8.07495618749965   10.42539359718335    7.40633987092416
C         9.43114062094345   10.52766012156783    7.71247486750071
H         9.99491640969481   11.37242664966010    7.33623558944806
C        10.04786826784889    9.56956010623596    8.49266776859532
H        11.09775044414031    9.65824392301173    8.72903098749889
C         9.31726687516662    8.48992703765811    8.96516556411926
H         9.79804963207514    7.73562481041777    9.56970756231880
C         7.97143676254264    8.37997494953463    8.66072328779858
H         7.40094073295229    7.54057495123696    9.03005660788937
C         7.34842908327468    9.34339487072473    7.88530494747768
H         6.29617043063466    9.25391113959237    7.65825225803813
C         7.31996603060159   13.15598754338164    7.51893521231621
C         7.68748499646467   13.06990053730913    8.85638608676323
H         8.01749918295430   12.12799679402809    9.27036714310958
C         7.63119414817793   14.19216120108207    9.66647256038667
H         7.92199969965031   14.11625628439382   10.70399867371168
C         7.20266742739883   15.40405379256796    9.15389196542894
H         7.15981272879009   16.27600783778909    9.78980671698299
C         6.83255694674666   15.49630156991089    7.82025699606130
H         6.50109671137379   16.44231317278011    7.41609798188215
C         6.89627838887982   14.38173044837360    7.00541726501227
H         6.63426609656370   14.45228101612008    5.95856337189594

