28
CSD_code = SIDTII | q = 0 | S = 0 | Stoichiometry = C10H10N3O3STc | MND = 5
Tc        7.70914846108275   -0.02303592520520   30.14721197050940
S         5.81784975600736    1.27276918509490   30.29821711779256
O         8.78804854930134    0.74533164822456   29.18450841465644
O         4.62399550611689   -1.50302552146228   27.86150292172557
O         8.17432506142818   -2.96741372095260   32.93786833690024
N         6.55810714012513   -1.11611487813514   29.00674748099502
N         7.78484283255416   -1.77983770919320   31.01188288786533
N         8.29030327165821    0.45447517144119   32.09021490811519
C         4.95345165082240    0.66372113694156   28.82401987349351
C         5.34982122424215   -0.77033080796272   28.50407161808395
C         6.97630402163018   -2.50265729205362   28.88327376234059
C         7.35076958546216   -2.96654963588124   30.29425743874195
C         8.14392104941335   -1.92973764602230   32.29888281234781
C         8.48265687307328   -0.59340535102157   32.90075383094367
C         8.96720988401730   -0.45791503017002   34.19149575718921
C         9.26787387399940    0.81169452307739   34.65764200312634
C         9.07563821222403    1.89329277085332   33.80910809755417
C         8.58233652834808    1.67431218232498   32.53384300004086
H         3.87927180367238    0.72667515979756   28.99626680201777
H         5.22012998126199    1.31345107105454   27.98876963063762
H         6.16315305932302   -3.09503758057676   28.45568245895560
H         7.84721874810872   -2.54878517530899   28.22122377049191
H         8.14508952273396   -3.71924295388531   30.27884180119543
H         6.48781278840592   -3.39727316496216   30.81699090957076
H         9.09305149818774   -1.34670984066386   34.78991909836928
H         9.64245985860460    0.95595469287728   35.65917954454296
H         9.29883423988921    2.89810145149330   34.12940207761023
H         8.40407501830636    2.48769324027576   31.84402167418604

