68
CSD_code = SIDYIP | q = 0 | S = 0 | Stoichiometry = C25H39LaOSi2 | MND = 16
La       -5.33050891176746    9.46444383479623   -1.73778783671121
Si       -5.20696104987397    5.59628175006387   -2.45218893910471
Si       -7.71635598911724   12.63609291410261   -1.37868861136112
O        -2.78500100673386    8.91410072322657   -2.58328032446548
C        -3.98242784970227    8.57315075242719    0.49135659496782
H        -3.04760503884722    8.03125624921817    0.46367575006249
C        -5.26473511638293    7.99183487136517    0.59339075597126
H        -5.47660419033745    6.93306177999419    0.63430288414503
C        -6.19581316757588    9.02563124632198    0.82955286669106
H        -7.23669832645379    8.88620293716360    1.08790695803154
C        -5.48917116161845   10.24608119470103    0.88075664830064
H        -5.89875565767199   11.20077820676217    1.18038079472559
C        -4.12081735920136    9.96688790393058    0.66939804792482
H        -3.31007689679599   10.67408590697857    0.79128576756517
C        -7.25968792872158    7.70503463583263   -2.27273479534103
H        -7.70779632735126    7.28770502431781   -1.37789035409671
C        -7.93478539884617    8.47173604104381   -3.22611850432773
H        -8.92290750607531    8.89303318142717   -3.11996785160832
C        -7.13910011458325    8.54395119649942   -4.38195090963778
H        -7.40715644963916    9.04677366677763   -5.29696626992107
C        -5.97037281062654    7.83065095578104   -4.15970441048810
H        -5.22454497664172    7.61037740117438   -4.90974802854038
C        -5.99478064347770    7.26619026053326   -2.83904144740613
C        -4.86512352791127    4.69348416074599   -4.10542570576266
H        -5.75178056826325    4.67387187783058   -4.72976104476776
H        -4.55873399579560    3.66661635351130   -3.93266811676470
H        -4.07618341893742    5.17880757474302   -4.67167109148541
C        -6.41596222425148    4.52490158431731   -1.42943779440469
H        -7.35708192425759    4.39218765378043   -1.95278127837000
H        -6.63727660335696    4.97080893309600   -0.46500661014670
H        -5.99777788605967    3.54043369466149   -1.24455775426885
C        -3.52947257631315    5.64723212829188   -1.51569439460798
H        -3.66760437363269    5.59096076496384   -0.44112675002064
H        -2.97404669968671    6.55501987365132   -1.72772226971322
H        -2.90856294389350    4.80432297320575   -1.80451455337238
C        -4.78720436767242   12.23010155487991   -1.67838617127733
H        -4.52220876998456   12.77024779976755   -0.78004646965127
C        -3.89426750510806   11.82280292071863   -2.67551045005412
H        -2.82498044643885   11.98122289618763   -2.66793893595711
C        -4.64431802672727   11.30250826647929   -3.75415109152820
H        -4.25421150160752   11.02082700699624   -4.72340230789616
C        -6.00694324916349   11.39323004332633   -3.41790160745306
H        -6.83289277888156   11.25276593347645   -4.10114773427914
C        -6.11994144601618   11.96810010125692   -2.11161645202425
C        -7.34526933860806   14.00755433616224   -0.10174596506126
H        -6.75194425007409   13.63737069265749    0.72801047971057
H        -8.26565728819949   14.40946806360254    0.30946829164731
H        -6.79993235264979   14.82844013955314   -0.55534479614204
C        -8.79754733823377   13.36368609100775   -2.77639399808363
H        -9.13192954070688   12.58788439013468   -3.45762440199652
H        -8.25073453114832   14.09842339221747   -3.35814714820123
H        -9.68096461038814   13.84990050103832   -2.37467266701943
C        -8.72831018799364   11.24600397394257   -0.52383182765636
H        -8.46296592187870   11.14098278192458    0.52365196110421
H        -8.56708486235674   10.28243560005575   -1.00714604961384
H        -9.79273320391150   11.45808173394245   -0.56534738588343
C        -1.56468505872543    9.20970525552808   -1.89638353091234
H        -1.17403513328315    8.29002726997316   -1.44069069237139
H        -1.79013810621315    9.92887899902011   -1.10841099730684
C        -0.57254777363932    9.75067921747361   -2.94186627530389
H         0.37470683425253    9.21783698564302   -2.88147975885373
H        -0.37524217935554   10.80994402939773   -2.79245839001269
C        -1.27690232741079    9.49666968035264   -4.28141446638326
H        -1.71312682582882   10.41845657664117   -4.66376126587383
H        -0.61179615218371    9.08424664120014   -5.03583096630814
C        -2.38571113331642    8.51942030908718   -3.89604497397889
H        -3.25780800149616    8.57078732484130   -4.54650950981799
H        -2.00540200465432    7.48861928427601   -3.87119586724761

