65
CSD_code = SIFBUG | q = 0 | S = 0 | Stoichiometry = C26H33ClN4Pd | MND = 5
Pd        6.64056262762175    8.77585617042333    2.88307000621015
Cl        4.62992333604479    7.88947626615712    2.14486329733578
N         4.74106994479900    9.05712672931310    5.63461003119703
N         4.24983788948006    6.89221388474319    5.50797570757410
N         7.86133028955738    5.64911585130523    3.90365047869174
N         7.15958751095511    5.72858123448530    6.01917646738140
C         7.02572030943652   10.18239188245444    1.27767834460164
H         6.82348808008451    9.99550330499202    0.22794703142009
H         6.58318926906449   11.09842769753091    1.67334299466948
C         8.20416269070874    9.69037696113913    1.83948434824858
H         8.83716521979123    9.02197333781520    1.25457081472232
C         8.43337207364383    9.83051014286328    3.22538873466701
H         8.14193422974009   10.76953001739779    3.69489209578804
H         9.33762307499505    9.39942732711524    3.64237492809152
C         6.42312910422113    7.56203416417863    4.59231634720578
C         5.22528539947676    7.83108744233349    5.24382633175502
C         5.48699874629328   10.28966180853237    5.47518514621718
H         6.50749613249252    9.97243433828100    5.19801405981008
C         4.89894987505819   11.10876221681818    4.32262213901691
H         4.88291112823667   10.48448618325661    3.41423969421738
H         5.50393253324266   11.99660839409236    4.14686170739753
H         3.87971817175138   11.41612951146121    4.54302512514970
C         5.57581924259682   11.07389141939909    6.78310360582371
H         4.62451976219782   11.52110369294822    7.05270147500253
H         6.30749437583480   11.87065851568116    6.67612008626107
H         5.89248420660245   10.42226657726084    7.59462636331024
C         3.44301686920345    8.91134208644959    6.07254609402209
C         2.49246381125722    9.81141227039750    6.52425042555371
H         2.67865600910992   10.87140587880744    6.56619440813387
C         1.25915499886287    9.31346008051660    6.91660548857238
H         0.50586366823730   10.00064391082599    7.27095146637422
C         0.97120029505602    7.95797419525145    6.85991498143444
H         0.00040964651929    7.60607283542751    7.17358963288511
C         1.90827628918423    7.04747187522425    6.39726303335233
H         1.67808844453896    5.99474414352966    6.34753386444940
C         3.13775343131657    7.53859777643607    5.99913327380065
C         4.22231913881233    5.58581420586707    4.90944284420008
H         4.75841917242951    4.84654377920428    5.50923983394958
H         4.67942647316179    5.65029957840313    3.91893454814293
H         3.18750457867068    5.27090194572440    4.79439505365151
C         7.07198809274039    6.36410162714022    4.78580444007931
C         7.90252079767715    5.87621626422305    2.46897426048931
H         7.28543355755952    6.78528346495064    2.27527915083736
C         9.33070086796980    6.16023311684693    2.00077733052724
H         9.76059416193781    6.96437478597562    2.59570032991386
H         9.31560211264181    6.46303525257104    0.95638280950690
H         9.96905835067030    5.28630208560652    2.09256917384863
C         7.25440647934164    4.71599791403897    1.71435487300568
H         7.77452123343600    3.77839920609258    1.89203107454722
H         7.26546157339316    4.92733085703703    0.64864091771677
H         6.21797691169203    4.60558278914005    2.02530921284264
C         8.42949695741826    4.58287094737651    4.56819927181246
C         9.27817768624091    3.56497498344617    4.16585431096448
H         9.63342359845685    3.47823346150702    3.15297747351489
C         9.67352768559947    2.62876839612251    5.11162288470408
H        10.33271613826033    1.82890033013199    4.81011342724800
C         9.24169578288496    2.69565534075459    6.42609858660185
H         9.56804624144194    1.95032395315890    7.13502337311146
C         8.38875888561431    3.70714641953013    6.84469653335047
H         8.04344315780572    3.75260811723697    7.86582265889955
C         7.99575743191805    4.64192624628080    5.90676129389948
C         6.72104178887765    6.28578987417201    7.26491857287380
H         6.71903665070113    7.37530743211755    7.18970471808820
H         7.40931699481615    5.98351724555845    8.05429457546529
H         5.71213881060238    5.95760025491010    7.53102643589788

