101
CSD_code = SIFDIU | q = 0 | S = 0 | Stoichiometry = C38H48N4NiO4P2S4 | MND = 4
Ni       -0.00005026784012    0.00006416092537    0.00000209329767
S         1.92871564802157    0.74221110448598   -0.99269133034447
S        -0.50856367545421    2.04054717099791    0.88192559658973
P         1.07895459338223    1.42513579692214    1.95373144903724
O         1.08964188196482    2.05348772305853    3.42046599528797
O         1.05346979146101   -0.15630489705668    2.25200925723635
N         2.55742995183105    1.74938876720431    1.40838456125167
N         4.15887613889109    1.87549714947961   -0.19854558131480
C         2.92375328104343    1.51102290224991    0.16389186085814
C         1.63121487194806    3.29578201241651    3.67814584574323
C         2.27993952824042    3.47188676078137    4.89153119750538
C         2.81557923101843    4.70882010011642    5.20353043411370
C         2.70834744682203    5.76227154578133    4.31086913809403
C         2.05737999264161    5.57781103944931    3.10325938901282
C         1.51610937179864    4.34490828213839    2.78265982839525
C         0.27582113311833   -0.93027804516369    3.09765037355269
C        -0.57600926319269   -0.39460445176688    4.04681235039982
C        -1.30230839592844   -1.25025292578295    4.85784058711036
C        -1.18342978923471   -2.62138664890470    4.71682953137857
C        -0.34113256247072   -3.14606222594342    3.74943869096548
C         0.39367713295989   -2.30512148604994    2.93614235484405
C         4.99678879188149    2.55302172388957    0.76989657153020
C         4.70711721636809    4.05312371001090    0.86674706390766
C         5.46603881794641    4.68236245678030    2.02683173568333
C         4.63908057911367    1.67319393848557   -1.54567129514027
C         4.20235538796109    2.77105353883664   -2.51938193073299
C         4.72262890549383    2.48293661886860   -3.92053984315115
H         2.35893039658690    2.63838329790500    5.57209801441818
H         3.32201924628443    4.84650275165247    6.14700942844720
H         3.13092835162223    6.72453330316299    4.55689588993392
H         1.96813367466405    6.39510121949925    2.40364486559965
H         0.99661171072621    4.18368992972865    1.84912630802393
H        -0.68240609043349    0.67556200184474    4.13248239944569
H        -1.96746462822422   -0.83637007052081    5.60113693698805
H        -1.75308925392132   -3.28144226168788    5.35348697190243
H        -0.25726203065510   -4.21488679378928    3.62337317457114
H         1.03950622169930   -2.68495500105345    2.15860847623687
H         6.04067231955045    2.38693759415999    0.49386113582977
H         4.81013079098132    2.09831386659532    1.74630747796124
H         3.63587879537074    4.18779565907191    1.01871981352897
H         4.98670244468673    4.54492057906362   -0.06664101907372
H         6.53810920141556    4.53946419769407    1.90765903858865
H         5.15682920691532    4.23202047570840    2.96698420345862
H         5.26349823060239    5.74893234089399    2.07791006351573
H         4.25465551651141    0.71360084211651   -1.90478552232262
H         5.73029240733331    1.62151870399573   -1.51000722209530
H         4.57915198605174    3.73640606787532   -2.17741042493622
H         3.11250844363889    2.81404900437982   -2.53466239833625
H         4.32456468158178    1.53796132394875   -4.28027776024293
H         4.41890690925700    3.26855121498864   -4.60692184879481
H         5.80937981677247    2.42506425409172   -3.92287228051950
S        -1.92863542436412   -0.74241384797241    0.99274930908842
S         0.50867431019092   -2.04036179595282   -0.88196237807992
C        -2.92372671263105   -1.51106930222301   -0.16388491468419
P        -1.07893891845792   -1.42516029529775   -1.95374637237088
N        -2.55741073362573   -1.74941490183751   -1.40838354768999
N        -4.15886946515908   -1.87547468992608    0.19854736210212
O        -1.08964548028272   -2.05353174014164   -3.42047324028582
O        -1.05345872912814    0.15627281901292   -2.25205691326291
C        -4.99680379583060   -2.55298519375350   -0.76988352196896
C        -4.63906269592855   -1.67312826761117    1.54567131241762
C        -1.63124366937661   -3.29581858703473   -3.67814656166183
C        -0.27580033257808    0.93022078028575   -3.09771085397825
C        -4.70714949006555   -4.05309149828115   -0.86670820642074
H        -6.04068212402679   -2.38687735518584   -0.49384375778356
H        -4.81013997088157   -2.09829407586627   -1.74630113309632
C        -4.20234491301088   -2.77096740595401    2.51940739373870
H        -4.25461810802676   -0.71353239467563    1.90475832199141
H        -5.73027371604014   -1.62143114225870    1.51001399892213
C        -2.27998273355563   -3.47191040361531   -4.89152664189480
C        -1.51616249299034   -4.34494526336883   -2.78265812452152
C         0.57603947994302    0.39451812193424   -4.04684699228853
C        -0.39362597434135    2.30506680224894   -2.93621436529124
C        -5.46608024700843   -4.68234272312974   -2.02677874018187
H        -3.63591269497181   -4.18777589973889   -1.01868206838568
H        -4.98673473223175   -4.54486797456892    0.06669073446263
C        -4.72260557269286   -2.48280869184920    3.92056136736579
H        -4.57915188291200   -3.73632422065513    2.17746102549199
H        -3.11249814276658   -2.81397227540489    2.53468241710291
C        -2.81565561946862   -4.70883160867463   -5.20352086059874
H        -2.35896245840731   -2.63840651934794   -5.57209377356020
C        -2.05746559799353   -5.57783631075971   -3.10325317223554
H        -0.99666047154119   -4.18373839830766   -1.84912558007412
C         1.30236571343275    1.25014328936966   -4.85787754116208
H         0.68242543738989   -0.67565214699803   -4.13249639459133
C         0.34121412367073    3.14598339440216   -3.74950928819997
H        -1.03944499578368    2.68492049337322   -2.15868290391541
H        -6.53814857257973   -4.53943375537302   -1.90760178582294
H        -5.15687107053977   -4.23201668745263   -2.96693913016730
H        -5.26354693541326   -5.74891460228419   -2.07784095058140
H        -4.32453153613877   -1.53782737544283    4.28027218266847
H        -4.41888391782160   -3.26840793008806    4.60696099778730
H        -5.80935591436875   -2.42492686655314    3.92290025218593
C        -2.70844350108791   -5.76228401513633   -4.31085906735079
H        -3.32210644688722   -4.84650334490549   -6.14699597659090
H        -1.96823699076635   -6.39512709463682   -2.40363732691891
C         1.18350971868559    2.62128040200336   -4.71688643106996
H         1.96752583010652    0.83623795557086   -5.60115878620807
H         0.25736621754007    4.21481150315987   -3.62345311106526
H        -3.13104939862828   -6.72453627322571   -4.55688194529102
H         1.75318726057453    3.28131699059906   -5.35354596330125

