99
CSD_code = SIFHAS | q = 1 | S = 0 | Stoichiometry = C40H48Cl4N4P2Rh(1+) | MND = 6
Rh        6.31460077450866    2.42116214748453    0.00062537187779
P         6.07890303061103    1.60566834780589   -2.13190316264854
Cl        7.24802741526395    4.38951016687210   -0.88724770097796
Cl        8.43848188878678    1.43825841954961    0.15672512972499
N         4.11434279745252   -0.41328127373443   -1.81867768784291
N         6.13012561939462   -1.22113967431129   -1.79523504049080
C         7.49917525717192    1.39274002054706   -3.26138142390308
C         8.66733520489870    2.11832097142726   -3.06092540975550
H         8.76655006697104    2.75808790512105   -2.19778571180448
C         9.71191877432785    2.01098246179767   -3.96351943048283
H        10.61898844789884    2.57136051830236   -3.79680340896307
C         9.59353662000956    1.19301697685887   -5.07320565348821
H        10.40849892061385    1.10904816491867   -5.77551725519547
C         8.42064005298595    0.48521492339282   -5.28752133600928
H         8.31934670599745   -0.14433523054840   -6.15918856876200
C         7.37502895042854    0.58462155087616   -4.39041055856741
H         6.46309052896826    0.03344095348783   -4.57056775812811
C         4.93852388477379    2.36620126552913   -3.33503394516686
C         4.27148267367026    1.62371922680539   -4.30711652030880
H         4.34130820082619    0.54423382806452   -4.32649002238897
C         3.50468518550822    2.26573971309753   -5.26128798326885
H         2.98728978249588    1.68372051513507   -6.00954162783604
C         3.40001969220659    3.64759575450544   -5.26094993682497
H         2.79793732723581    4.14166045342773   -6.00777665985314
C         4.07196938960344    4.38898045809449   -4.30502867065684
H         3.99920967219707    5.46562240441825   -4.30342254263448
C         4.84348444264456    3.75310311523915   -3.34858309921345
H         5.36899726660593    4.33545819406419   -2.60682068375437
C         5.27467225556041   -2.25428371605967   -1.56852567471749
H         5.61787158827616   -3.25202829155849   -1.38990356040512
C         4.01483666356899   -1.74873651099793   -1.58363755825768
H         3.07238087546309   -2.23182290230308   -1.42660955255839
C         5.41238099298576   -0.10097692378347   -1.97510844725716
C         7.56481504453018   -1.34386783123127   -1.67669622594951
H         8.00386828751331   -0.34454787008818   -1.69859928289220
H         7.77806901110561   -1.77298139605918   -0.69307919024647
C         8.17405081249748   -2.21526797826736   -2.77276780874536
H         7.82762885921696   -1.87012286566572   -3.74835853932430
H         7.85695392887703   -3.25267430423996   -2.65002053137246
C         9.69904662032167   -2.13948513798963   -2.73222754159816
H        10.00655551798115   -1.09739019437204   -2.84118127879219
H        10.05363883394253   -2.49090990437024   -1.76186977426071
C        10.32812733973957   -2.97406991355880   -3.83987886993837
H        11.41136497623372   -2.90737450013546   -3.79438160782710
H        10.00378012132204   -2.61982070761773   -4.81566959883870
H        10.04593751913111   -4.01966771951556   -3.74173821129911
C         3.00132470136423    0.49317628647796   -1.72446651523378
H         3.33061061640351    1.44800444034678   -1.30700818800815
H         2.26172395852580    0.06072473290912   -1.05281648206606
H         2.54164305345430    0.66748085323747   -2.69799216806618
P         6.54671149273191    3.23902283790067    2.13240640732630
Cl        5.37377744973595    0.45552748512612    0.88686804640895
Cl        4.18974328342175    3.40303470954071   -0.16003248665185
N         8.51162056662767    5.25768757047752    1.81867186783584
N         6.49584072462245    6.06560156324159    1.79554378373367
C         5.12666283624262    3.45189348945865    3.26200915547991
C         3.95851650789299    2.72632728665578    3.06149696540532
H         3.85932726570173    2.08657099565684    2.19832759958643
C         2.91390306948601    2.83376745758782    3.96401586697409
H         2.00679199950054    2.27347696131674    3.79723445595670
C         3.03235232538021    3.65171808965312    5.07371495910250
H         2.21740704934109    3.73570118206103    5.77603472300843
C         4.20530067672803    4.35943574484297    5.28807896763671
H         4.30664179837041    4.98896215413898    6.15975153678277
C         5.25091007828843    4.25997749553825    4.39100700162877
H         6.16287509923524    4.81113304750498    4.57112242516596
C         7.68731890873278    2.47792570396808    3.33500719415058
C         8.35451295146929    3.22023608136645    4.30710486673387
H         8.28480343437101    4.29972528234944    4.32656832021108
C         9.12136660454417    2.57805316011997    5.26112689844823
H         9.63881117424211    3.15994094912022    6.00944533570904
C         9.22610270250224    1.19620472499451    5.26053868910966
H         9.82812848214397    0.70201201371871    6.00732886966292
C         8.55405949873191    0.45497894381390    4.30457777933271
H         8.62682992708846   -0.62166727581465    4.30277065603455
C         7.78235904589991    1.09101081217783    3.34838224660286
H         7.25690114646730    0.50871429256306    2.60657472835203
C         7.35129691452322    7.09870196407248    1.56866300667872
H         7.00807096115338    8.09644383989430    1.39013725083987
C         8.61112486654079    6.59311667489591    1.58355874205663
H         9.55355549081225    7.07618433803520    1.42632924778038
C         7.21359105356001    4.94544850011320    1.97532122473472
C         5.06114646342059    6.18825025244917    1.67688383967281
H         4.62210776738584    5.18895147791872    1.69911451607306
H         4.84797256552293    6.61700224623239    0.69309358026235
C         4.45174517371218    7.05987721684387    2.77264490049019
H         4.79847524691017    6.71527668032607    3.74832170048475
H         4.76840185055366    8.09735398037706    2.64937800529358
C         2.92677074561527    6.98343774380528    2.73235709504984
H         2.61967568893023    5.94127216161760    2.84181338992307
H         2.57186818224043    7.33428988760106    1.76190606880554
C         2.29760590412755    7.81827795458711    3.83976963282357
H         1.21438275190585    7.75112024320199    3.79457587607637
H         2.62235804659007    7.46462477102339    4.81565062720945
H         2.57934850097167    8.86394637631955    3.74105150843832
C         9.62457773671696    4.35119394717870    1.72419613606975
H         9.29513985872414    3.39640821982128    1.30686406548936
H        10.36397065300121    4.78353555688776    1.05226056827418
H        10.08455732551091    4.17684328435497    2.69756006271300

