64
CSD_code = SIFHIA | q = 1 | S = 0 | Stoichiometry = C26H31N2O3PRh(1+) | MND = 4
Rh        1.68902467726183    6.28543612054214    2.60161244297563
P         2.81387369476562    8.15700813318261    3.10281340612187
O         0.57581498587711    4.63574363497418    2.14896988171404
O         0.91170715659274    6.22972265240467    4.46179735067000
O         2.54334111563182    6.23476104454329   -0.25215646857488
N         1.61126936911075    8.81078249224472    5.54247300989300
N         3.57510824340748    7.94142300607521    5.86257090087805
C         4.58839404612008    8.37976631811380    2.71448160231470
C         5.20028794701644    7.43731706928682    1.89402220148278
H         4.63829683688145    6.56993500788929    1.57138212179129
C         6.51655216515326    7.60124426421148    1.50008686643898
H         6.97999412004342    6.86740044589951    0.85937306842614
C         7.23370274405768    8.70683318758487    1.92569787256392
H         8.25856300379099    8.83946901737079    1.61648531280729
C         6.63252985358461    9.64592574004046    2.74933866016905
H         7.19013442119932   10.50713722429502    3.08457987665856
C         5.31529064154286    9.48938406692535    3.14009244605892
H         4.85915985747929   10.23210186616664    3.77691332186041
C         2.18873769611933    9.75947691092612    2.48729503412264
C         2.38596588911278   10.97884338512801    3.13159163864048
H         2.86684318379666   11.01914490144348    4.10034130714428
C         1.94822739082386   12.15038762552082    2.54081888261970
H         2.10277485330328   13.09286882908007    3.04418807321344
C         1.31430339774918   12.11771328109485    1.30857351558432
H         0.98141410761795   13.03615845930476    0.85118861316031
C         1.10163199687248   10.90660190262708    0.67091457186126
H         0.59864253997639   10.87720900347654   -0.28299309508653
C         1.53444446611500    9.73171870548654    1.25957819169633
H         1.36064424179279    8.77685317227872    0.77744504887234
C         2.73443318994226    8.40882165139554    4.92036435603297
C         1.76447142261482    8.64269219980784    6.88282991931646
H         1.00576787578799    8.91436967909150    7.58852179738292
C         2.99153964982421    8.09479171154933    7.08267021511110
H         3.47673023020747    7.80405214069737    7.99186691768571
C        -0.20441674476896    4.00268541497370    2.90779091519287
C        -0.45874294895709    4.29926293188508    4.25638379004457
H        -1.14159142361354    3.65956790265924    4.79114545259823
C         0.09826510729496    5.36918209216949    4.93794464627093
C        -0.91855074923478    2.81817661736277    2.31091865772510
H        -0.64147326157902    2.70777897303931    1.26608788478088
H        -1.99491456578387    2.95405648538399    2.38867934129008
H        -0.65217381802133    1.91365854118773    2.85347557584002
C        -0.29440801555501    5.55515807687921    6.38692582914201
H         0.32296440998779    6.31829752483971    6.85641538053794
H        -0.18278942376555    4.61961462501149    6.92843686415334
H        -1.33883754688433    5.85498469839810    6.44878545836831
C         4.83060109812344    7.25097536456443    5.66183582118507
H         5.26963622908477    7.08317696098115    6.64753243227519
H         5.50445333378651    7.88559819381574    5.08086064843966
C         4.62751746693761    5.91810510102297    4.94011280296755
H         4.12980858555257    6.10463280237961    3.97951017439835
H         5.60956410707212    5.49494010366854    4.72796139301659
C         3.77703227363096    4.90929113347916    5.70725758038441
H         2.88039579402675    5.39916014735995    6.09250278851552
H         4.33453373615008    4.50749582788494    6.55542687725338
C         3.35540366403762    3.77913617098114    4.77564128971567
H         2.71644372518375    3.06867089680981    5.29287828569836
H         4.22432812130142    3.24940537092078    4.39366759259826
H         2.80091452269804    4.18871780615891    3.92000491465908
C         2.27118222853927    6.27855259332968    0.85675092682976
C         0.39192077466414    9.24655763125827    4.91979212573612
H         0.19492040036975    8.62982495688214    4.03820718639674
H         0.44986276742356   10.29303921599441    4.61675591399862
H        -0.42596685888418    9.12560098807562    5.62798258837124

