97
CSD_code = SIFJIB | q = 0 | S = 0 | Stoichiometry = C48H40Br2N3OP2Re | MND = 6
Re        1.73073934459182   -2.04891632187802    3.13308560615129
Br        1.93069367281757   -1.24749585376753    0.79649858680853
Br        4.10171623786325   -3.09506394628353    3.08999334872776
P         0.52392304274116   -3.96425058768816    2.21688963102137
C         1.03957383885711   -4.80073448804787    0.68605205026922
C         2.33764394672033   -4.69333890853935    0.20512012686327
H         3.06430906046055   -4.07645883657037    0.71144935727545
C         2.70747317755278   -5.38572269542229   -0.93511853179830
H         3.71553197219959   -5.29237602054340   -1.30927133946217
C         1.79123393163604   -6.18990591155643   -1.58906836317705
H         2.07979498599448   -6.72568675444415   -2.48146196211733
C         0.50059069888868   -6.31531102805527   -1.09664556416931
H        -0.21304991603954   -6.95111474524766   -1.60071028502080
C         0.12364105732342   -5.62894089192344    0.04025070342169
H        -0.88148429351600   -5.72780171583509    0.42834404260283
C        -1.17930298029727   -3.43107498440399    1.89660154783761
C        -1.54671768358009   -2.96859176732376    0.63617217647090
H        -0.84690205054309   -3.03482445625386   -0.18619269967239
C        -2.80151059828588   -2.41978195032285    0.44063110105282
H        -3.08429673747547   -2.06671546309081   -0.54029219243988
C        -3.68837442034640   -2.31673859280276    1.49951434006251
H        -4.66861987713981   -1.89026791677195    1.34362197360405
C        -3.31452295535771   -2.74939580846018    2.76256705337729
H        -3.99905569678143   -2.65410879025472    3.59308823761575
C        -2.06115805798711   -3.29420172868130    2.96879489228258
H        -1.75694268871382   -3.60485612573253    3.96005802464481
C         0.39013720928369   -5.41037094940310    3.31827000552231
C         1.55569939513810   -5.82211445809592    3.96001907785213
H         2.48195241388792   -5.29105242032918    3.78629163450870
C         1.52991482405913   -6.89872540267930    4.82622915547271
H         2.43397560437091   -7.19986839036248    5.33412655742188
C         0.34385190941683   -7.57751781847148    5.05050484610105
H         0.31806181980191   -8.40672740320615    5.74221553659983
C        -0.80814975597055   -7.19365429111359    4.38512720617952
H        -1.73155046366699   -7.73066719360736    4.54748002899229
C        -0.78914260325939   -6.11806869388506    3.51578290882465
H        -1.69545522946678   -5.82721485480680    3.00424767412194
P         2.90481996090117   -0.08882476920357    3.98585177084904
C         4.32563620563773    0.70495748261120    3.16772933051437
C         4.95973573494529    0.18213026918848    2.04976446267171
H         4.63732126998293   -0.74833079818070    1.61062440776990
C         6.02994278185053    0.85819033928913    1.48727762802142
H         6.51740045787451    0.44606636268381    0.61705441829976
C         6.46939545327081    2.04953990591886    2.03485640219008
H         7.30337459455586    2.57496155040399    1.59319082660413
C         5.83973681924942    2.57209667499100    3.15536885318042
H         6.18263651455390    3.50117789814113    3.58765869560827
C         4.77174270501524    1.90623226655895    3.72058251508803
H         4.27855335381605    2.31059275334820    4.59543094563347
C         3.54715239260069   -0.47796591208046    5.64103782686651
C         4.91043885658378   -0.65807298753492    5.85043380903181
H         5.60957429757159   -0.47176437669046    5.04786603423077
C         5.36779692138520   -1.10054453842208    7.07905763572449
H         6.42689461673002   -1.24434065208766    7.23260569945814
C         4.47406482755737   -1.37612645281659    8.09996495329160
H         4.83354800694140   -1.73041357176450    9.05480667985377
C         3.11324787460987   -1.21554697114074    7.89148070420362
H         2.41127911181140   -1.44922366958217    8.67925564367366
C         2.65043656165010   -0.77758906158710    6.66577091089948
H         1.58586035262577   -0.68126999016828    6.49368885403175
C         1.82397795411208    1.37072343027904    4.16213203211219
C         1.36017318905223    1.90810227980283    2.96167817176410
H         1.69793384461657    1.48598906533143    2.02317222870210
C         0.48829957581291    2.97869753492445    2.96476137037085
H         0.13607719453220    3.38792257994918    2.02936432748484
C         0.06774201439664    3.52313467682930    4.16766925000728
H        -0.61917569005384    4.35649526057297    4.17414735893993
C         0.53996375492081    3.00571423792469    5.36177755558482
H         0.22801611716091    3.44062399545790    6.30044598625328
C         1.41619068890906    1.93392112747997    5.36433336969483
H         1.79344556746249    1.55324663216840    6.30237744410164
N        -0.21354649116523   -0.93881971299129    3.37635573922275
C        -0.79032801746465   -0.22881976329909    2.40909403337924
H        -0.33348686638954   -0.25900604062739    1.43002113930431
C        -1.93438942833990    0.52266984815013    2.59776770069336
H        -2.35008875199654    1.06852223293766    1.76625574804201
C        -2.51790935469308    0.55921982566820    3.85144135491064
H        -3.40595958269761    1.14327898828039    4.03734752378407
C        -1.93024733753983   -0.19013287862867    4.85842131010124
H        -2.34534823876258   -0.21922502945476    5.85303647630844
C        -0.79590985252417   -0.92371750173258    4.57693800572134
H        -0.35524572416348   -1.54061372400723    5.34615307413901
N         1.53291812914304   -2.77439776466086    4.72847221255310
N         1.52088735002227   -3.40718240042319    5.75171541330068
C         0.50816188459613   -4.07263115609805    6.39313748829935
O        -0.66230176755036   -3.92794434719353    6.06832056588688
C         0.99246936431327   -4.94919226831301    7.46936940594123
C         2.33595145482424   -4.96988734618778    7.83793214132120
H         3.03393149454273   -4.31476984404313    7.33789943169016
C         2.76007353710006   -5.82775228058142    8.83404334026465
H         3.80114703856035   -5.84535754474530    9.12092080479686
C         1.85463808659979   -6.67037005475167    9.46132889689568
H         2.19267012230106   -7.34316720083475   10.23594463383017
C         0.51762427375165   -6.65343798214297    9.09544595932745
H        -0.18514437176472   -7.31204827551222    9.58441090931307
C         0.08533598126834   -5.79491476872455    8.10393911866693
H        -0.94975894934758   -5.76574741699560    7.79760297544411

