72
CSD_code = SIFJIC | q = 0 | S = 0 | Stoichiometry = C35H28FeN2O6 | MND = 5
Fe        7.49601830058895   -1.82288070743293    3.41325985878660
O         7.50549588192738   -4.56593398055846    2.33746104572189
O         6.54899069642146   -1.26780646159538    6.13615216714393
O         7.98116899127720    0.46378914214955    1.63593266259771
O         5.21722365013819    0.68151350242235    3.97622525216411
O         4.76621445998729   -3.51342124124190    1.82947414761948
O        10.28641362853116   -2.16279027236432    4.13877564502599
N         3.41435942731496   -0.54274061061370    3.03555538458990
N         3.29723440018569   -1.75648525524024    2.40127419996530
C         9.17762096074475   -2.02953707510352    3.84944609061403
C         7.44823480827987   -3.48527663193866    2.73820478982825
C         6.97908504238943   -1.50220106298250    5.08607371469966
C         5.49106175152927   -1.49948931478303    2.98147673278817
C         4.73178963790355   -0.38111374532746    3.35120316050734
C         2.29432040121341    0.23440997361163    3.40170850961349
C         2.08646411472479    0.52248231735150    4.74572867175502
H         2.76879280844354    0.13456677548989    5.48658160620883
C         1.00920558754392    1.30508301863783    5.11545593049509
H         0.85153039313514    1.53790537817448    6.15709689936343
C         0.13209879251328    1.78014069825642    4.15486297423314
H        -0.70781393946850    2.39095085126268    4.44722908786815
C         0.32743965589110    1.46684512639641    2.82036385484775
H        -0.35954902691819    1.82978188168736    2.07174041826831
C         1.40747663114802    0.69413148162005    2.43584582130964
H         1.56288707089117    0.45379097755541    1.39496234686812
C         2.08486025925164   -2.24002579017951    1.86685838017389
C         2.01879797467530   -2.52658645777030    0.50831147876634
H         2.88310999315708   -2.35458264116950   -0.11465681838970
C         0.84993926227733   -3.03611054693745   -0.02455666215838
H         0.79874336195780   -3.26606477646335   -1.07759485457289
C        -0.25255376491051   -3.24281299170692    0.78743700715144
H        -1.16350580559644   -3.64098180029892    0.36829088386851
C        -0.18849292614603   -2.93690920498052    2.13646225541716
H        -1.04752609870629   -3.09525375833649    2.76977282793612
C         0.97775495630221   -2.43619510357492    2.68401645652993
H         1.03081392593391   -2.20677205822666    3.73743288459426
C         4.53838229807294   -2.33137447436539    2.39372118400670
C         3.82441910063821   -4.53150509496006    1.96794711000971
C         3.50246046779607   -5.26330664262828    0.82459115665857
C         2.55085528160031   -6.26790110201575    0.92970455324303
H         2.28833963310547   -6.83347101688404    0.04817733904216
C         1.94720298772582   -6.54722030334002    2.14049451819077
H         1.20059537068120   -7.32378293154659    2.20780154096912
C         2.32749407932646   -5.85412116718674    3.27421361471310
H         1.89156973009816   -6.10417295371458    4.23014043213274
C         3.28097898620211   -4.84659364366404    3.21555097215757
C         3.73071219387322   -4.16334141193566    4.47301188606914
H         4.78868887312163   -3.90505370526788    4.42225154144964
H         3.57774205240911   -4.82478229568794    5.32270028502381
H         3.16492517589043   -3.24915101991474    4.66050181910296
C         4.17991406973584   -4.99354696520053   -0.48403024777497
H         4.82999605583553   -4.12639044412945   -0.41375221392749
H         3.44539923252916   -4.84008120396660   -1.27334119299467
H         4.79230163396739   -5.85109000393401   -0.75914407748176
C         4.57547689297097    1.91478223789374    3.89526506095878
C         4.33000860613563    2.58636198461951    5.09377613692311
C         3.67928733310347    3.81137042684030    5.04003527868670
H         3.47483664940155    4.33550140387759    5.96164311802387
C         3.29791597684671    4.35832240903052    3.83008247682756
H         2.78232324530187    5.30619430480968    3.80251374446273
C         3.60808392685312    3.70673359048579    2.65110190452080
H         3.35244122544009    4.15632539220682    1.70309883084170
C         4.26469412318179    2.48364459849597    2.65797044624529
C         4.66176866817354    1.83146767833927    1.36768730952963
H         5.60839417390628    1.30558160752126    1.47438376523236
H         4.77376520165306    2.58791040783123    0.59452171239486
H         3.90989853196486    1.11812278270060    1.02735134543392
C         4.76786820811309    2.01507502212386    6.40753533592145
H         5.17667135802149    1.01584235090624    6.28759137981320
H         3.93709892444986    1.98911603727179    7.11150622443788
H         5.54603975042941    2.64516928675542    6.83625053669438
C         7.83224471692010   -0.44535477716908    2.33618036026798

