68
CSD_code = SIFJEX | q = 0 | S = 0 | Stoichiometry = C23H32N6O6Zn | MND = 6
C         7.86359119121124   10.36629170794411    7.96690631157182
C         8.83519956948220   11.50140842435046    8.26158743770261
C         9.46903895886384   11.46259992054782    9.63621193688759
C         8.45476433369582    9.26592576992497    9.97535653294727
C         9.98034148822698   11.39188533418797    7.22457676492959
H         9.52807697729850   11.41415161545726    6.23118378028399
H        10.62500103849541   12.26633866122893    7.33453960938072
C        10.80808681516616   10.12129375198745    7.38753033096903
H        11.53649732747224   10.05299202485824    6.58242733916785
H        10.18240428584031    9.23090181097559    7.35937037798223
H        11.34963188466168   10.13160000074962    8.33175647377613
C         8.10174548939926   12.84608443698808    8.08999392600863
H         8.82173212996716   13.65368735653930    8.22972285711324
H         7.71021446492398   12.89127742144234    7.07272181046661
C         6.95926071002506   12.99932927697649    9.08770784026869
H         6.44395018343364   13.94268852024860    8.92335998787068
H         7.33596520638593   12.98937801632990   10.10868984566287
H         6.23951413697033   12.19027224869260    8.97518593858421
C         9.03440487020502    5.81771532165686    8.61615462623948
C        10.13604517158177    4.79126116248279    8.73808211450192
C         9.70586333995100    3.51429555135055    9.43599564112270
C         7.42773438389075    4.46109133520237    9.70755751357305
C        10.63029168207283    4.42686375227917    7.32189986383753
H        10.98187465241219    5.34133196080873    6.84148221981563
H        11.46694626769377    3.73341874448155    7.42106279858815
C         9.53299240725716    3.78947517051383    6.47740077534119
H         9.90235948849295    3.59001351509060    5.47414425628331
H         8.67196774258100    4.45212289728074    6.40326005058399
H         9.20747435046312    2.84756817178221    6.91453300403970
C        11.29056423353082    5.42118291165302    9.54865156870906
H        12.09761791551213    4.68841901106850    9.60979542753093
H        11.64669149567522    6.29648001565657    9.00267128900730
C        10.85696518325680    5.83159938493211   10.95120522775035
H        11.69578908725381    6.27834517479732   11.48060075029977
H        10.51944109079331    4.96638491532546   11.51904476149570
H        10.04791418308956    6.55895841774134   10.91148240884430
C         4.97119678455133    7.34911143734339    6.73851991180826
H         4.76184520403085    6.28481767975732    6.88114298182261
H         4.60700956084747    7.64528960505724    5.74547075727445
C         4.23168723722390    7.51068630605536    9.14783787848379
C         3.04947129812593    7.05556145204428    9.72075462415288
H         2.11922673052490    7.15022825409268    9.18157176494105
C         3.07839497472964    6.47991787783024   10.97921980054454
H         2.17070897668443    6.11321845133348   11.43482632699457
C         4.29199122909263    6.39145281251564   11.63994030095849
H         4.36346361725450    5.96073718492095   12.62488562149349
C         5.42661148515273    6.84923992340602   10.99585013928300
H         6.39792007201822    6.79956979773489   11.46384685176906
C         4.22842502047282    8.16880180966633    7.80005964832373
H         4.72139309882733    9.14044705990731    7.87348818957041
H         3.19740007503216    8.32433817130885    7.48119369800363
N         9.24533040864486   10.31925986504985   10.36947576818058
H         9.71800003935588   10.23391309401975   11.26261472586309
N         7.74953403874506    9.35427525455487    8.84743028462452
N         7.80762556366261    5.60425592293486    9.09561817087056
N         8.40130327162457    3.46752598356104    9.84360135376416
H         8.09665077245709    2.61973473844352   10.31082928235342
N         6.40993160158882    7.57278299303257    6.85712200353340
H         6.61177675695749    8.55929612740000    6.63626108829260
H         6.91050900723456    7.01209774782120    6.17371460682312
N         5.39820797876447    7.38838822836154    9.78199159327337
O         7.21386392352114   10.35170654293546    6.93006290359480
O        10.15780896648023   12.34836718635916   10.07889287267045
O         8.36756452820088    8.24845199256732   10.66128412125178
O         9.23619486792169    6.89868252208656    8.05412764471035
O        10.45225110615928    2.58299988852360    9.62355402701132
O         6.30549730281846    4.26294323479640   10.11992009002129
Zn        7.20995076408249    7.46596714106549    8.80923756862187

