66
CSD_code = SIFKEZ | q = 0 | S = 0 | Stoichiometry = C31H28Cl2FeN2O2 | MND = 3
Fe        0.19522065367217    6.74870014101208    5.21080478698428
Cl        0.14701999611052    8.73233138165982    5.25552264688808
Cl       -0.27372528804020    5.39882211946030    6.80901287256366
O         2.87172107808291    4.39807672488746    4.56953697722701
O        -1.73389114033066    4.56471993313488    3.30413322909317
N         0.04570824580731    3.10532366620318    3.06390162790198
N         1.38523914864750    3.08510119234586    3.37654781732684
C         0.51253833873189    5.03392711995052    4.20096815980614
C        -0.45697757557868    4.28268651458639    3.54146555192535
C        -0.54060283073338    2.23436366039824    2.13283936241075
C         0.19323436167127    1.76112732891651    1.04896745266600
H         1.22049941659787    2.06375247172619    0.91342589822427
C        -0.40389220616494    0.90341099954001    0.14412443987305
H         0.16762002043575    0.53482862183679   -0.69403528320554
C        -1.72701795344423    0.52663023716653    0.30398618341227
H        -2.18830797639715   -0.14061250214407   -0.40760403790923
C        -2.45700598281478    1.01020656426676    1.37743432898779
H        -3.48860726015432    0.71995583252655    1.50526218372092
C        -1.86915646431094    1.85734745979363    2.29806043862677
H        -2.42742645492550    2.23020861641752    3.14082412387844
C         2.15605234794166    1.91010056613060    3.38256383764034
C         3.51740870118267    1.99462800313849    3.11102481771855
H         3.96150815314045    2.95233597149151    2.89315511174304
C         4.29032635053492    0.84854748248767    3.13671476256359
H         5.34780796017752    0.91594242651995    2.93144437627133
C         3.71320232836616   -0.37924839052909    3.41567653374950
H         4.31960630338363   -1.27172055986170    3.42805868271846
C         2.35689404809659   -0.45825443538082    3.68565009281865
H         1.90401305115732   -1.41082160671900    3.91441966956199
C         1.57442055005253    0.68103803069895    3.67837475313711
H         0.52246440593059    0.61927282905487    3.91082424113678
C         1.63858171906963    4.22673845718745    4.09227693481523
C         2.98381473448060    5.39608927338681    5.55675214217053
C         2.97001569537164    4.99242338829671    6.89061945601337
C         3.09969565052606    5.96814478473644    7.86847449670752
H         3.07731625687761    5.67408663539815    8.90665155442624
C         3.22515987652709    7.30190677371653    7.52579778739060
H         3.30720074800456    8.05109137176349    8.29865277551372
C         3.24199657636119    7.68177748149562    6.19645386034752
H         3.34625403159448    8.72194366871887    5.92777660765490
C         3.12218289866066    6.73360619341366    5.18328388056438
C         3.17921619439019    7.15502355455042    3.74159199073762
H         2.24870281457024    7.65749404719860    3.46719126712037
H         3.32556318655463    6.29983081246201    3.08699745857148
H         3.99574632655305    7.85826686012787    3.59232310348369
C         2.75229603481573    3.55607825253959    7.24756962886113
H         3.21610208235212    2.89329041153480    6.51929535577353
H         1.67776948262515    3.36751058798503    7.25948314998960
H         3.14886080720732    3.34165628404163    8.23603207901089
C        -2.15225656427687    5.86178726928964    3.65197422658038
C        -1.77725670797158    6.94563571317159    2.85121109373136
C        -2.30389860740792    8.19481598097287    3.15618262120565
H        -2.02644013261223    9.04451611703046    2.55125474266973
C        -3.16578447845525    8.35710890015270    4.22539362406753
H        -3.55488882083028    9.33699109830980    4.45605606092226
C        -3.53146987670068    7.26939517289062    4.99723105376851
H        -4.20597102344725    7.39903312573932    5.83007870737738
C        -3.04230673016298    5.99940908846464    4.71954383170632
C        -3.42310348861891    4.81234141815521    5.54376607342038
H        -4.28809382645108    5.03459928802682    6.16186441048733
H        -2.58486913588818    4.55464019613844    6.19440665788517
H        -3.64329627650492    3.95591720115931    4.90979592255357
C        -0.85563792288422    6.75683424414045    1.68102178860657
H        -1.10296499479020    5.84501655632882    1.13850196199876
H         0.17704544244221    6.68034767908425    2.02614760620853
H        -0.92927629881369    7.60302371168403    1.00356044819796

