76
CSD_code = SIFPON | q = 0 | S = 0 | Stoichiometry = C27H41N5NiO2 | MND = 4
Ni        3.35104928180246    0.91934342306525    7.38819812563861
N         0.74378562402311    0.02852033612406    6.48016473981760
N         0.55113879384923    1.47391162794365    8.05539620575994
N         6.08781927998432    1.96631499167497    7.65304929971862
N         6.02269661859337    0.21073278209027    6.42102720354726
N         3.05069863833314    3.32181562447148    5.63718062258311
C         1.46097608870456    0.78427044674466    7.33876233806295
C        -0.71706621624819    1.14718680334002    7.65658154228721
H        -1.59377505702010    1.57500824287629    8.09631467023893
C        -0.59625567603509    0.23807385959795    6.66443426610121
H        -1.34840673224117   -0.26166829471285    6.09040507341859
C         1.32445040029438   -0.79268793533088    5.44024061233077
H         2.40314012830784   -0.80183168454794    5.64973974605686
C         1.09906116911695   -0.13952304648710    4.07809875976451
H         0.03771878965139   -0.08716096859839    3.84427357107947
H         1.59850538497201   -0.71297064376478    3.30182540737565
H         1.50727628873191    0.86894607692619    4.08408637546377
C         0.77896438397185   -2.21592422036635    5.49783871546523
H         0.89176819812326   -2.61979152591392    6.50142827431120
H         1.32587431253684   -2.84847037708809    4.80336635422509
H        -0.27384455761458   -2.24318110007292    5.22587326987587
C         0.87496184528770    2.50153443703820    9.02251316935867
H         1.96273922810231    2.45457665005729    9.14614387552511
C         0.50128640771133    3.87276416907122    8.46336750769033
H         1.02241592756731    4.03819814107425    7.52268546403199
H         0.79273828074945    4.65120636590524    9.16338807812483
H        -0.57062845672770    3.94481765222216    8.29023343190748
C         0.19582021965695    2.21586804587951   10.35864090681533
H        -0.88506754691469    2.31078405953551   10.27771689022481
H         0.54426364167269    2.92136249665038   11.10829965669115
H         0.43261163867459    1.20723732514110   10.69065879171071
C         5.24987789767835    1.02270259648240    7.17485726814742
C         7.36272822851569    1.74284427123991    7.20975898473474
H         8.18891622902650    2.37080085806744    7.47061882931553
C         7.32269370568998    0.63766465736905    6.43373626326997
H         8.10548117611292    0.13842474583466    5.90166366443993
C         5.53138368406856   -0.91427949358070    5.65621338528271
H         4.47788662060359   -1.01793518470672    5.94339893151049
C         6.27563547857335   -2.19257856023855    6.02919122125240
H         7.32383733470199   -2.13717187085254    5.74383229746853
H         5.82714980125040   -3.04105113317042    5.51915939270271
H         6.20920662992862   -2.35896094958156    7.10212151278422
C         5.61201092091626   -0.60684564159381    4.16235491102652
H         5.07039676348670    0.31153150833334    3.94578459368881
H         5.16751991603350   -1.41696632650038    3.59028831120116
H         6.64594878553845   -0.48609468370566    3.84569848593229
C         5.69109387781204    3.11075379302061    8.44803892111080
H         4.63844837737424    2.94265687060557    8.70478121268841
C         6.52676802946887    3.18942954804138    9.72285261759276
H         6.51764246161290    2.23230404735247   10.23830928746911
H         6.11900495517175    3.94706217749502   10.38662267682275
H         7.55793771362475    3.45444802496487    9.49875846989381
C         5.80023932117924    4.38704358720391    7.61645865495474
H         6.82342925613322    4.54877344049958    7.28335631687753
H         5.48881188336291    5.24203699579607    8.21045050429875
H         5.15120382397570    4.31539827537407    6.74654140345846
C         3.17900948350528    2.39533582630838    6.31515776190997
C         3.46203702063929   -0.64617497474586    8.52910689276538
C         3.60025975496591   -0.22816641614767    9.86706799403799
C         3.69062862038076   -1.10030198086343   10.93074976619453
H         3.79873983758167   -0.77384275920636   11.95325901661247
C         3.64235582755358   -2.47459351362814   10.69204520179316
C         3.50224069370848   -2.93236658839382    9.39740590845696
H         3.45803010307512   -3.98864297306205    9.17595452853278
C         3.41302251673270   -2.02051280390835    8.34597623994938
H         3.29961824979809   -2.44083880195917    7.35300604521883
C         3.69375366802448   -4.65672388732250   11.64257342999933
H         2.74431037043349   -4.97775784799321   11.19872896705724
H         3.78539461094393   -5.08521627865281   12.64016589420624
H         4.52062876164310   -5.01614618047629   11.01912000238376
C         3.70751060966956    1.69971822641591   11.28032278337408
H         2.85795653002526    1.38890459526000   11.89887769974771
H         3.68388437405122    2.78303095281642   11.16041315583063
H         4.63613594881510    1.41649836327784   11.78887173175750
O         3.63508348583897    1.14934870345362    9.99321378707452
O         3.74113033316623   -3.26670697545174   11.81530213000085

