31
CSD_code = SIFPUU | q = 1 | S = 0 | Stoichiometry = C10H16AgN4(1+) | MND = 2
Ag        8.88957403732800    0.00002258319806    6.64469072946186
N         8.48609492070593    3.16001458246885    6.54209804049351
N         6.67841172605314    2.18351872343830    5.93974672987429
C         7.93904153997781    1.94261505481692    6.35222418597516
C         9.82833144000531    3.41508280747941    6.98538467063814
H         9.81960539489196    3.98177492088280    7.91744554859803
H        10.37527344220301    3.98578366299528    6.23350916770825
H        10.33729090159508    2.46229326499044    7.15097274127487
C         7.58529465161925    4.14391271393154    6.25387061069350
H         7.81931069086095    5.18478381098439    6.33932596736545
C         6.44097274329676    3.52578832692789    5.87274312678358
H         5.49916470489617    3.93145110380608    5.56629011503476
C         5.69961482340416    1.18496284068933    5.61092454312476
H         6.14175624220159    0.19415553181111    5.74233937985074
H         5.37553361378651    1.29684877370613    4.57532702838743
H         4.82922140211257    1.27656668281711    6.26227318726878
N         9.29294294016544   -3.15994844549975    6.74714580112361
N        11.10069502912184   -2.18358254184788    7.34948891583828
C         9.84002113893059   -1.94258811664591    6.93720148112479
C         7.95063006590453   -3.41491705110147    6.30402218142933
H         7.95923598943755   -3.98168095024116    5.37188636581761
H         7.40374846920415   -3.98562547030621    7.05605141428104
H         7.44168358675354   -2.46198822753583    6.13847227897719
C        10.19377605115777   -4.14391020052424    7.03505976531651
H         9.95975890488321   -5.18476206242471    6.94937936227396
C        11.33814644209301   -3.52586618991506    7.41617004655120
H        12.27999875150257   -3.93159428545303    7.72239640943746
C        12.07950799539465   -1.18509459468055    7.67846832351490
H        11.63730592998619   -0.19425784770000    7.54745238827801
H        12.40374696628270   -1.29731199501297    8.71398156655662
H        12.94980946424424   -1.27644740605496    7.02695792694635

