71
CSD_code = SIFQII | q = 0 | S = 0 | Stoichiometry = C24H40N6Ni | MND = 4
Ni       -2.06733045461392   -0.39766274042449   10.52008751536052
C        -1.10578505874150   -0.87037177990713    8.96277730250352
N         0.19327856892185   -0.64214828151803    8.68569885698576
N        -1.56893005211994   -1.61807182920247    7.94222877458069
C         0.54037884354127   -1.24572463531309    7.50645644905384
H         1.52676386722368   -1.19712888245605    7.09466724974289
C        -0.57041232870556   -1.85791143024743    7.03705759829221
H        -0.71722973119594   -2.43141121667488    6.14552336764466
C        -2.91623731726796   -2.14548695440806    7.88586042956999
H        -3.43819052687056   -1.69950701525834    8.74702896808157
C        -2.89093400908463   -3.66172966700910    8.06038407218091
H        -2.36091940310022   -4.13826017102798    7.23845567247830
H        -3.90550157705102   -4.04935414313522    8.09171876431398
H        -2.39313323181688   -3.91404830883683    8.99425002430734
C         1.93498512128033   -0.94850585778249   10.35634991691248
H         1.28800926226039   -1.65231992141376   10.87641910405198
H         2.55391130608271   -0.43585324686490   11.08771405719740
H         2.58095392386547   -1.50207673579780    9.67784871994047
C         1.08394864492776    0.05947758983848    9.58591755558589
H         0.42387178143951    0.58443704239227   10.29315157132893
C        -3.61151578680188   -1.72140960918442    6.59596908994373
H        -3.56976431087100   -0.64021295613251    6.48344038002882
H        -4.65392075810233   -2.02733012559147    6.62078181991656
H        -3.13990645583112   -2.18063487898510    5.72993329730537
C         1.93532868485310    1.08041003087803    8.83868931800695
H         2.66034267918832    0.58975827671170    8.19332017505892
H         2.47747018093659    1.69620148402069    9.55135439182183
H         1.30585611985226    1.72692494176484    8.23106474611722
N        -2.43881505940056    0.36129790869599   13.28598256137485
N        -4.29131507109764   -0.25155897439284   12.38799018131198
C        -2.98372626673735   -0.05392082426009   12.12541185984211
C        -3.39422230796664    0.41882843555943   14.26507116481811
H        -3.18277849516157    0.72510108458615   15.26828017470055
C        -4.55973905995757    0.03145983118179   13.69950957816886
H        -5.53747460005100   -0.05176217287422   14.12476476809604
C        -5.23145949130176   -0.76403660166845   11.41158804199880
H        -4.78495420181212   -0.54031193085739   10.43185534633650
C        -0.80303245446086    2.00718518141644   14.07567671612387
H        -1.33702968791856    2.76837986029505   13.51121673790615
H         0.25676473255641    2.24775970644112   14.06561002513470
H        -1.14916596975522    2.03175867825141   15.10645068836336
C        -0.37754446696305   -0.48060412005849   14.27672528136479
H        -0.80175977184458   -0.51761232495807   15.27789130372035
H         0.69243978021450   -0.30898443480608   14.35703355655963
H        -0.54128846048857   -1.43922359118699   13.78913883356944
C        -1.02682614235649    0.63125328831312   13.45590373235061
H        -0.60543294094874    0.61534137522786   12.43804729466173
C        -5.34870361853551   -2.28058028850352   11.56753482695590
H        -4.36429222758254   -2.73808075908465   11.48370001055237
H        -5.99260724026016   -2.68882905862304   10.79312603374053
H        -5.76818394816041   -2.53181423772883   12.53969759312423
C        -6.58653796909952   -0.07405364684974   11.51957390725319
H        -7.11516746843428   -0.38804542527939   12.41661058062279
H        -7.19672966629687   -0.33884450943636   10.66001888261301
H        -6.47562601583008    1.00839156718095   11.54047617527631
C        -1.59384394054176   -2.04339979159229   11.20448279483819
N        -1.27635256881870   -3.07161509101120   11.62509291560504
C        -2.59492358569247    1.36445532163773    9.71872627283750
H        -1.74844143831254    1.84530205129368    9.19598719769395
H        -3.31807572693637    1.11866164778115    8.91590211821807
C        -3.24970101358108    2.46578757957247   10.56585903877854
H        -2.53697043112236    2.85266858442862   11.30150559213459
H        -4.11155245421471    2.07735185446973   11.11446838101968
C        -3.74451455521331    3.63142814912695    9.70133144355056
H        -4.39453376409070    3.24570231055019    8.91119618707443
H        -2.90018717444935    4.13575786882273    9.22483813286901
C        -4.52840389683098    4.65375405508019   10.53941340552773
H        -3.89381295325398    5.05546549824416   11.33543746676619
H        -4.87466584332500    5.48430512847460    9.91688673220183
C        -5.67298010108526    4.02746607327891   11.14483238117798
N        -6.57542044509220    3.50346576483128   11.61470489486937

