51
CSD_code = SIFQAZ | q = 0 | S = 0 | Stoichiometry = C23H20NO6Re | MND = 6
Re        9.91665354627955   10.58778422563558    5.38643910717879
O         9.45425801801382   13.47624217710174    6.41084080232017
O         8.00548434594373    9.17832169598430    7.41488729003569
O        10.50284724907815    8.20720492834402    3.49288398521374
O        12.42461845462856   10.04377138807685    7.12524914465567
O         6.90161112671738   11.65160553766271    6.23015643901694
O         5.24332087407306   12.32785558586100    4.88613767281543
N         8.30852580023216   11.21887441917907    3.81572390939562
C         9.62196693626749   12.38423614311814    6.13370152393315
C         8.68351577493745    9.69731455958123    6.65839966451605
C        10.26131366470445    9.02625253822333    4.25350378295157
C        11.47472141362103   10.22715769725471    6.50724061799495
C         8.76883722979242   11.92947926696771    2.84099537470328
C        10.19553618933959   12.18991259130438    2.77050662960694
C        10.74133599677246   12.92184576681466    1.70965485682140
H        10.09667014889425   13.30483466097937    0.93063481546479
C        12.09779822233544   13.15312290475026    1.66049649257477
H        12.52367082928205   13.71572738455688    0.84271349243644
C        12.91072158474700   12.65811912673402    2.67054632427340
H        13.97650133736232   12.83498564052781    2.63616517484472
C        12.36807572577735   11.94245880090863    3.72456857998212
H        13.03151514074314   11.57512266430352    4.49685623610914
C        11.00026043501573   11.68252964440630    3.81781190251118
C         6.88747266441401   10.96024622259873    3.90495599683604
H         6.34695026019363   11.37957662868968    3.04607760344182
C         6.36520604297117   11.66357939300958    5.15338267431288
C         4.64671026701267   13.02676373083276    5.97454206370759
H         3.88360201883481   13.66857618564018    5.54249243373588
H         5.39846824832083   13.61657193405621    6.50208734485057
H         4.19846181468359   12.31907747652619    6.67421342076967
C         6.60218265889229    9.44329722855008    3.96946624769810
H         7.24711665722840    9.01101638343425    4.74336523547728
C         6.94898885950596    8.80657232680891    2.62672272278985
H         7.98606215188404    9.00299009627631    2.36274986310539
H         6.30811531853348    9.20110214218061    1.83973041595887
H         6.81135065389936    7.72940267926925    2.67732293877843
C         5.14452271038970    9.18373796636472    4.33470897632648
H         4.93462197708064    8.11825779451852    4.28013314230064
H         4.47774991329520    9.70325797406933    3.64882756795509
H         4.93089736925568    9.51793861266676    5.34758991859409
C         7.89819300419195   12.50417777175556    1.78667573356436
C         7.77109545829737   11.87166582582116    0.55480053759042
H         8.30188702503481   10.94855499165754    0.37174475577040
C         6.96874640912412   12.42553889327229   -0.42671446953687
H         6.87179761475294   11.92943336056423   -1.38088831956433
C         6.29616813382787   13.61258672381797   -0.18835296489045
H         5.67256339084640   14.04365807245604   -0.95702847570416
C         6.42660276564279   14.24842162248921    1.03513507801750
H         5.90682256627617   15.17601849965873    1.22261577750688
C         7.22367232915741   13.69769329448526    2.02233825909808
H         7.33121167187104   14.19102682026544    2.97809170215472

