59
CSD_code = SIFQEE | q = 0 | S = 0 | Stoichiometry = C20H32N6Ni | MND = 4
Ni        0.00000856682781   -0.00014855192495    0.00000307372333
N        -0.56344273422412    2.70126403395077   -0.91475791491185
N        -2.23840996178020   -0.00315067453660    1.97292175057006
C        -0.00001418721930    1.88960824741425    0.00000841415869
C        -0.35160373104162    4.01083618515707   -0.57748533323044
H        -0.70812967324509    4.82861839353293   -1.16804745852966
C        -1.24908042348576    2.22785782318531   -2.09992076790618
H        -1.35453747144285    1.14019416147510   -1.96247253762071
C        -2.63728834164846    2.84989741499358   -2.20728613252762
H        -3.19182925824861    2.69261508458548   -1.28466500564369
H        -3.18489494973087    2.38626810017649   -3.02343272206870
H        -2.57324569365227    3.91803007500109   -2.40198390348546
C        -0.39383281650261    2.48897960750088   -3.33706722926665
H        -0.23330633496250    3.55609874040841   -3.47583282507059
H        -0.88728756169605    2.09288395590914   -4.22039006284789
H         0.57111000843063    1.99792676323194   -3.22852817641376
C        -1.40506629093728   -0.00120139284528    1.17447504941483
N         0.56343232833404    2.70126393599259    0.91476317556073
N        -0.56350570531083   -2.70112032673581   -0.91474290668366
N         0.56351763790030   -2.70112130704769    0.91472297976109
N         2.23846663648808   -0.00348370564470   -1.97279784226964
C         0.00001557803767   -1.88953531137313   -0.00001592087760
C         0.35162125009953    4.01083646118222    0.57747368520737
C        -0.35165097884365   -4.01069439817880   -0.57746103323108
C         0.35164911588431   -4.01069423436398    0.57745245109140
H         0.70817049337053    4.82861819176225    1.16801794977096
H        -0.70822381081335   -4.82846448919342   -1.16800178048228
H         0.70820400764694   -4.82846529448347    1.16800696028455
C         1.24907444221561    2.22784975738843    2.09991809026816
C        -1.24918059841336   -2.22759580904220   -2.09984574477472
C         1.24917632054075   -2.22759104478941    2.09983360170268
H         1.35453357977135    1.14018602726475    1.96245764472846
H        -1.35502013783214   -1.14000094585204   -1.96208588113485
H         1.35501764527326   -1.13999657156773    1.96206532976621
C         2.63728202274948    2.84988830320970    2.20727640791628
C        -2.63718141813802   -2.85002888854366   -2.20750271735123
C         2.63717673400118   -2.85001916255827    2.20750440938973
H         3.19181876203177    2.69260680856167    1.28465101806612
H        -3.19179463063708   -2.69324788613580   -1.28483786242923
H         3.19179525726755   -2.69323690249782    1.28484432793660
H         3.18488459503769    2.38624762780004    3.02341961844442
H        -3.18489110223739   -2.38624777565462   -3.02349359165056
H         3.18488126460047   -2.38623872668531    3.02349809877239
H         2.57324266936435    3.91802044696615    2.40198351784078
H        -2.57281151834991   -3.91806687102127   -2.40260617157828
H         2.57280703499798   -3.91805619298263    2.40260453860564
C         0.39381665049113    2.48896470378665    3.33705904770090
C        -0.39367215210198   -2.48807975384413   -3.33694544383886
C         0.39365760524224   -2.48805571822804    3.33692992433680
H         0.23328374348253    3.55608387909418    3.47582716482431
H        -0.23255067524944   -3.55509110460514   -3.47584360384171
H         0.23253201855396   -3.55506289902763    3.47583951269824
H         0.88727725786531    2.09286728093992    4.22037759987592
H        -0.88724584203515   -2.09210736428086   -4.22025626304797
H         0.88722135803877   -2.09207561681277    4.22024218956787
H        -0.57112296568330    1.99790199205982    3.22852080652403
H         0.57100124147914   -1.99652948334115   -3.22821185714309
H        -0.57101383129100   -1.99650653844534    3.22818195616535
C         1.40515897072970   -0.00049906028694   -1.17436160481695

