93
CSD_code = SIFRIK | q = 0 | S = 0 | Stoichiometry = C40H48N4Ni | MND = 6
Ni        0.94946698994778    3.95573624826535    2.39335053021621
N         2.85291706503637    4.24678704157463    1.79520257982330
N         0.78367419158733    5.76135707383325    1.34401571048821
N         2.60580276473732    2.42916817391359    5.38969564811135
N         1.80117453392149    0.46141142852222    3.53505701890539
C         3.05490938368802    5.29646407060542    1.06849078239488
C         1.90781119463655    6.17443812882392    0.86295244535522
C         4.36148743744849    5.62657000168039    0.41443401635847
H         4.76624025823159    6.55229565785072    0.82115417192493
H         4.22780467567396    5.76613378642536   -0.65750271329103
H         5.07588582757234    4.82335096639194    0.57832684202690
C         2.07223056076511    7.44123356783776    0.07980020927460
H         1.10920293029874    7.92821935688290   -0.05333087043087
H         2.49587717444923    7.22798028968656   -0.90042982028214
H         2.74817796982651    8.12419377013849    0.59218405669720
C         3.84810797614053    3.30232130822130    2.08037009353069
C         4.85584750725739    3.56644567078996    3.02067705602689
C         5.75310522116530    2.55219740019524    3.32114570993013
H         6.52517265400237    2.72830024605749    4.05405775945302
C         5.67754791086996    1.32088428782109    2.70124897729048
H         6.38888271630609    0.54737716563430    2.94921467059828
C         4.68555060991694    1.07399645790665    1.76967681841378
H         4.63568710021918    0.10765536937449    1.29546855071763
C         3.75274767627888    2.04588138621060    1.45359870185927
C         4.96262816687585    4.89960372170431    3.72790331473821
H         4.15801579037215    5.55213264518828    3.37379649442185
C         4.79298671804388    4.73356193597807    5.23968053800440
H         3.88757394425338    4.17251567093112    5.45993046641306
H         4.73359995225911    5.70990653046113    5.71711862117514
H         5.63762149141353    4.19631010762197    5.66415864713590
C         6.30628793081191    5.57370136529639    3.43066934296377
H         6.32925129704405    6.56803521140823    3.87247865912852
H         6.47998798039291    5.66628104513202    2.36130746243615
H         7.12379999683459    4.99601172018724    3.85472078611104
C         2.65639749461614    1.81278582050344    0.43924470840475
H         1.77732045223614    2.41301347269725    0.76099670453037
C         2.21917217092574    0.35355051244379    0.34689052432121
H         2.98045751674684   -0.25473407133048   -0.13682304502684
H         1.30957166582094    0.28163693714816   -0.24660479476081
H         2.02151909585645   -0.03975269435669    1.34144438465264
C         3.09060167467343    2.31942669457281   -0.93951249084239
H         3.29622055263722    3.38604715715202   -0.91906609198316
H         2.30473185810223    2.13692200221303   -1.66937561787942
H         3.99055015695492    1.79928576013852   -1.26321230563305
C        -0.42073212140760    6.45781521784798    1.23950747560447
C        -1.42995342244563    5.87006413185511    0.45344761567389
C        -2.65019317799003    6.51348070030697    0.34470252980499
H        -3.42906596924910    6.09204481499646   -0.27050395304285
C        -2.88904828654921    7.69542985368101    1.02432311201786
H        -3.84592678150269    8.18732437962066    0.93124051654297
C        -1.91113021452630    8.23554549901061    1.83673445297370
H        -2.12133677642847    9.14098609912407    2.38550306210149
C        -0.66354492741411    7.63963052245557    1.95564824419425
C         0.36379141864628    8.21585504672196    2.90461955871458
H         1.30105003580882    7.66282532618173    2.79437522257271
C         0.63904045101260    9.69346930555278    2.61705933838522
H         0.89599764055848    9.84717938265388    1.57127366518852
H         1.46633835498398   10.04356587368988    3.23096732237768
H        -0.23108858235967   10.30305670623797    2.84621430575231
C        -0.10470472876680    8.03272445571566    4.35081481992905
H        -1.05690562233533    8.53088752415968    4.51744975516734
H         0.62905049238148    8.44814275018363    5.03835394508745
H        -0.22288071601589    6.97551049474334    4.57328135089018
C        -1.13090913815480    4.56622733429408   -0.24841513196516
H        -0.43965280854851    3.99536521382378    0.40874518116551
C        -2.37154022998050    3.71029033967837   -0.49075585121023
H        -2.97213848279660    3.63210349584779    0.41245800691045
H        -2.07266114063116    2.70874132236647   -0.79250244377819
H        -2.98859865882455    4.12746936577380   -1.28370654375879
C        -0.40614147165662    4.82528182116922   -1.57215613599786
H        -1.02990861559587    5.42693682827567   -2.23111714277197
H        -0.18485830076506    3.88338575901701   -2.06881609187793
H         0.52977346501870    5.35165078964135   -1.40529369513763
C         1.56882571885465    2.62310667226733    4.58852196432472
C         0.80947911158566    3.83053467495904    4.68873287863654
H         1.11495310419309    4.54957949732544    5.43813478232993
C        -0.38156441913467    3.97137688002343    3.99405348665650
H        -1.05207849938908    4.79701886077251    4.20818217854405
C        -0.78385476988205    2.98187078524919    3.05114662028995
H        -1.75422871686289    3.06844013093780    2.57545774954330
C         0.00433981548027    1.86136831765824    2.83224225361014
H        -0.31086009218824    1.07527523344810    2.15929257445169
C         1.15647209576625    1.61550426745262    3.63920202087695
C         2.87188690472684    0.27736978270379    4.32611723508404
C         3.60202419475335   -0.92464469913948    4.24009838379610
H         3.27723490828491   -1.66662747868539    3.52646702587951
C         4.68588214818586   -1.12899955837891    5.04765819162343
H         5.24444138171592   -2.05198479048176    4.98237845414759
C         5.08852550921955   -0.14804021849041    5.96880833412386
H         5.94956105281766   -0.33456300996796    6.59487819862475
C         4.40347411799130    1.03002650837064    6.07769142852864
H         4.69510763934191    1.79458686549376    6.78136989273381
C         3.28014887322341    1.27267052411850    5.26330860097980

