34
CSD_code = SIFSIJ | q = 0 | S = 0 | Stoichiometry = C14H16FeO2Si | MND = 8
Fe       -1.39069537091986    0.14608096729315    3.20031667194126
Si       -1.35366088749428   -2.09904585817022    3.17123386999344
O        -3.61066213042235    0.01379024360770    5.05151550005323
O        -3.35741579445864    0.07388349473598    1.07845236539632
C        -0.32454794309112    2.02532688020324    4.05190154236020
C        -0.87075628049350    3.10052657043592    4.77240897520354
C        -1.32016640318120    4.19608465059065    4.08028639931961
C        -1.25333845575518    4.25550314780121    2.67859269162295
C        -0.73588100277051    3.22052183908788    1.94196078119553
C        -0.25634695154749    2.08584113048608    2.61728689467299
C         0.39304824655591    0.88176566605220    2.16681594680077
C         0.82706449443067    0.17448736986474    3.30863557284501
C         0.28270202140265    0.78511976283204    4.45948636710517
C        -2.70417525282221    0.03374727665124    4.34595568678643
C        -2.55028092712438    0.07404032124590    1.89606485816621
C        -3.04189487147905   -3.01332155659408    3.08593049676719
C        -0.35556926070076   -2.68642880362240    1.63282241670619
C        -0.49473998977071   -2.72276642402322    4.77777633279713
H        -0.91219443071529    3.06554227514377    5.85159067908271
H        -1.72752451084652    5.03968229907693    4.61763143342857
H        -1.61124533840150    5.14321047093781    2.17839464069519
H        -0.67457955039728    3.27758916418024    0.86466063728416
H         0.73241032542332    0.70883496935790    1.15799739235828
H         1.48658135519228   -0.67754735953752    3.30438706221712
H         0.52544725976688    0.52675302912837    5.47774493861037
H        -2.90231758027671   -4.08923464612574    3.06057571632810
H        -3.65925540580195   -2.78076003927265    3.94635955252904
H        -3.59748995136876   -2.73143798441381    2.19853210055948
H        -0.33357493884964   -3.77010585539297    1.58573689562926
H        -0.81505638112828   -2.32545004007227    0.71913506801376
H         0.66994588422978   -2.33667097844766    1.64573234044948
H        -0.52070348134369   -3.80622078008350    4.82678834629600
H         0.54267592923397   -2.41559552980221    4.83783833210817
H        -1.00340242507503   -2.34034567315452    5.65605149467704

