84
CSD_code = SIFTIK | q = 0 | S = 0 | Stoichiometry = C35H43FeOPSi3 | MND = 8
Fe        0.75789319320233    3.80418102021394    1.67150412341755
P         2.40075242564190    3.78675363652915    0.24314624382204
Si       -0.18428101078923    5.81121541231169    1.24754069884575
Si       -1.45976977367717    6.08415934855973   -0.76565199999188
Si       -1.42628218046300    6.52280928274482    3.17272493572441
O         2.36149549841187    5.23998681056998    3.59854296243411
C         0.47536898797956    1.52284740117059    1.58351188317063
C         1.37492607953013    0.48574003711104    1.30469789667838
C         2.05369222007452   -0.09745687116119    2.34722670086929
C         1.86726340365801    0.32963480239851    3.67041743709327
C         0.99705274381031    1.34743570526291    3.97692386891496
C         0.27982505847006    1.95641627317055    2.93709335732219
C        -0.74703772279947    2.95620218542454    2.92301453510328
C        -1.25554310911415    3.03616465105768    1.60707279675338
C        -0.43344905204108    2.27473763871628    0.75866607280809
C         1.70927820015079    4.69557611362761    2.81685313957878
C         1.03062492188698    7.29650965844045    1.02961671934244
C        -1.72339412750524    8.41706404002047    3.17211132202914
C        -3.17638007492211    5.74062229959475    3.26041350530497
C        -0.55245202094002    6.14899817247513    4.83445373653737
C        -2.77929463995584    7.43832985033378   -0.45567630847939
C        -0.43037350057001    6.77248117016756   -2.23324741658662
C        -2.46139740484248    4.58164903886491   -1.41393130224161
C         2.09864759593099    2.78256361349088   -1.25677696192888
C         1.02105521079906    3.19423824641489   -2.03787312732224
C         0.66042560430115    2.49202231555637   -3.17119512454971
C         1.36222405444020    1.34952877190926   -3.52458771245972
C         2.41588840612021    0.91785708908166   -2.73725269965000
C         2.78558125842578    1.62730978915035   -1.60593001731953
C         3.24819676969986    5.24453686748640   -0.47290418312258
C         3.20088632429206    5.61431084854617   -1.81061954188339
C         3.86854602905245    6.74823984220184   -2.24272409010978
C         4.59062475854955    7.51759726727566   -1.34753850522184
C         4.64880137706526    7.14989576890106   -0.01180251611606
C         3.97915451491673    6.02370774069528    0.42277998244635
C         3.91327657252625    3.00598661826410    0.92507069151508
C         5.08391327915560    2.92032539498193    0.17289504084880
C         6.21425146551048    2.33659496030161    0.71232205469489
C         6.19151810713831    1.84122750490124    2.00728993079356
C         5.03658315563160    1.93793110145614    2.76382871446845
C         3.90238183411399    2.51882340121507    2.22413613791400
H         1.50291405022721    0.13512271647457    0.29007237142587
H         2.73727623285951   -0.91119298919225    2.15332307733466
H         2.41359839306163   -0.16562985567809    4.45982920407913
H         0.84492316419767    1.66362150509554    4.99896876785654
H        -1.22277530356379    3.35326099440189    3.80309009875170
H        -2.13727783776883    3.57566805692107    1.30927322574869
H        -0.63590921532435    2.04542211566704   -0.27435850516556
H         1.74895012046716    7.35188463987791    1.83889852705890
H         1.58807887648379    7.24284641308445    0.10262938995680
H         0.47665358677931    8.22907942569018    1.01999288786893
H        -2.26666924487216    8.74200298346470    4.05562367845737
H        -0.78224363406783    8.95688914592612    3.15249324986697
H        -2.29724756743338    8.72707376128661    2.30525663196707
H        -3.76086756265074    6.17572811199447    4.06571005169758
H        -3.72696366313498    5.90433183301092    2.33976724700359
H        -3.14277012035792    4.67045562095831    3.43034602302017
H        -1.19592622010749    6.33579554103171    5.69038988840461
H        -0.22104243107662    5.11746143853090    4.88867558641239
H         0.33054824669186    6.76974628628819    4.94592198723830
H        -3.37883923546918    7.63058590209178   -1.34153108396393
H        -3.45935696905594    7.15952039223741    0.34235237256726
H        -2.31037074120113    8.37469598792138   -0.17134305060757
H        -1.02977683963569    6.88923224648994   -3.13263429554979
H        -0.03439114289941    7.75003461543159   -1.97747261215545
H         0.41789150241196    6.14612404338569   -2.48551640759174
H        -2.89494628099026    4.78863567756652   -2.38864775668547
H        -1.86169570509709    3.68392005469917   -1.51045554412721
H        -3.28316043470426    4.35204184615836   -0.74278824407790
H         0.46449987881370    4.06755800972670   -1.72669275942930
H        -0.17212472518134    2.82706243707489   -3.77283352412247
H         1.08089726549893    0.79143233731797   -4.40539222383584
H         2.95341638579065    0.01870743289829   -3.00248901394726
H         3.60288519367041    1.27321401440570   -0.99455088331704
H         2.65386084352177    5.01293196397346   -2.52227176309792
H         3.82530375964694    7.02923129665639   -3.28506942618662
H         5.10975892517168    8.40079406377150   -1.68905654504811
H         5.21443267503040    7.74606450636757    0.68887891334918
H         4.01372923413249    5.73407789619809    1.46382763593218
H         5.10530385148221    3.31959707067527   -0.83271732714413
H         7.11813662927287    2.26990888669195    0.12405506601786
H         7.07778143756266    1.38729630125630    2.42587907164173
H         5.01820529240242    1.56381532261052    3.77659270477404
H         2.99873489649614    2.61149513006549    2.80923032613518

