52
CSD_code = SIFTEG | q = 0 | S = 0 | Stoichiometry = C18H28FeO2Si3 | MND = 8
Fe        2.38773951057792    0.57375892229270    3.16058497486157
Si        3.15818054711379    0.01561272231290    5.21190196544766
Si        5.11733921994199   -1.33968541109986    5.02052185383255
Si        3.22161829522900    1.94634864142396    6.61780417065639
O         1.43571948869049   -2.11239411795985    2.66992790052311
O        -0.30024472628458    0.96373035948729    4.15359129339087
C         3.02971462902814    1.09564107566678    0.99933577719691
C         2.54948476304827    0.55217864083905   -0.20305810643655
C         1.48071473478405    1.15414968371746   -0.81779609730967
C         0.86065151294035    2.28629722920083   -0.26572076697501
C         1.29710176698016    2.83830874456786    0.91210363904721
C         2.39460409880557    2.25416261772154    1.56446670976350
C         3.12451473660479    2.60596458491938    2.75389614082349
C         4.25209938852978    1.76271851051686    2.83364464971620
C         4.13848786989157    0.75566316353149    1.85209382942976
C         1.88087938589312   -1.07762034837729    2.89741926234240
C         0.79591197952547    0.84674640795327    3.82850531930325
C         1.92910796443818   -1.14995150722786    6.13944402875656
C         5.47777509624618   -2.21085728341513    6.68779115907150
C         6.70438345913727   -0.36065009779428    4.58237763952373
C         4.88375264817426   -2.68743223602974    3.68369679214063
C         4.75750215044627    3.05094862621789    6.31918111200212
C         3.28765939348535    1.42370127508374    8.45934857544635
C         1.66729029372559    3.03331095446777    6.37165208795601
H         3.02979033244117   -0.31223110827731   -0.63876722018017
H         1.10690791656209    0.75956445944356   -1.75101267181448
H         0.02749266786524    2.73073034395818   -0.78976828659401
H         0.82293857793696    3.71643586097812    1.32659357233278
H         2.99180212511821    3.52400841792625    3.30321613272736
H         5.06764172701248    1.87197746692582    3.52781999291944
H         4.90322579970634    0.03784526387735    1.60249401913492
H         0.95820506412493   -0.68275666767357    6.26560084865657
H         1.77234464395033   -2.07512264439234    5.59512075137756
H         2.29818318087683   -1.40941674640599    7.12620297938288
H         6.35604062098006   -2.84852161569588    6.63441391514051
H         5.64849791016751   -1.48593259435794    7.47798258096972
H         4.64140147524125   -2.83237201150290    6.99078227941679
H         7.58831849890264   -0.98490552886943    4.67649111791394
H         6.68213893594213    0.01236581083645    3.56418622936450
H         6.84040564822199    0.49006360294315    5.24281331639246
H         5.78662761724156   -3.26776841312003    3.51390197180315
H         4.09838000463853   -3.37955146743466    3.96991960899338
H         4.58998337169699   -2.24673260944918    2.73580088586912
H         4.82433910256405    3.84177777716143    7.06078516276015
H         5.67587956618882    2.47530038314508    6.37952006774516
H         4.73007766003150    3.52643891161248    5.34463144711058
H         3.31104758955350    2.28049802524044    9.12726393150133
H         2.42073336494149    0.82737129414067    8.72429051454108
H         4.16992665252451    0.82536253630684    8.66505834931539
H         1.71442112592861    3.96128229529155    6.93561272992686
H         1.53227205826467    3.28828471677792    5.32492289491449
H         0.77448855451470    2.50285308260824    6.68740896785562

