88
CSD_code = SIFXIO | q = 0 | S = 0 | Stoichiometry = C40H43OP3Ru | MND = 7
Ru       -1.66762229525915    4.03811637750408   12.41115798428756
P        -3.59628184487183    2.96504995069440   11.79614595259689
P        -2.80158864444090    5.02933901603176   14.08191344277485
P        -0.71004690213277    2.53229406231132   13.88158451489369
O        -0.25246757569274    3.59527300955322   10.80134921650724
C        -5.12110998673625    4.01890319618559   11.81522249160474
C        -5.48169276495676    4.71995453566316   13.12463478784018
C        -4.45115462927323    5.73477689797505   13.60639418723500
C        -3.33444798586368    3.96201782652669   15.49099339581204
C        -2.19270177379825    3.22485944314118   16.18830874019655
C        -1.67251737552718    2.03656159210967   15.38829303845766
C        -4.09690926176619    1.41623426657827   12.63678725738773
C        -3.19082040527233    0.37119358981338   12.45945787540776
C        -3.39715722592535   -0.85611487735157   13.05491858511347
C        -4.51728228802262   -1.05583327009396   13.84849021351655
C        -5.42975861389189   -0.02985534724859   14.01990387497159
C        -5.22739810868901    1.20035700367995   13.41437843964485
C        -3.76367443228770    2.31775697091555   10.09175925540277
C        -4.90727493575876    1.62538146371846    9.69917293171754
C        -5.01932980686303    1.14312667518679    8.40978923594579
C        -3.98974495045097    1.33663968011294    7.50152359154541
C        -2.84138727384812    2.00112810184355    7.89376531183540
C        -2.72617287188330    2.48773482648266    9.18527111454150
C        -2.18288087964857    6.53991261427599   14.92634152113376
C        -1.91398283205478    6.64604151103584   16.28733828268532
C        -1.41077553087744    7.82367909075874   16.81383994743326
C        -1.17020937459467    8.91356200562493   15.99618488781219
C        -1.44457567885582    8.82358674574169   14.64121651331780
C        -1.94249821575138    7.64755392757641   14.11488649993452
C         0.77478647703005    3.14302642052089   14.77209561260290
C         0.82406999314676    4.50162340358159   15.06649756501225
C         1.87833444751368    5.03152908071831   15.78580609679683
C         2.91098681637734    4.20651239960620   16.20080685535261
C         2.87930064730974    2.85572527843102   15.89548179291760
C         1.81524949157004    2.32126940068665   15.19042512910632
C        -0.10993566222079    0.89721986415222   13.31062159543755
C        -0.14674994540154   -0.28129480851848   14.05218474098683
C         0.34398238765555   -1.45900386454329   13.51588991724047
C         0.87469334721762   -1.48348106308348   12.23728340573455
C         0.90225156847809   -0.32010577059230   11.48701815538230
C         0.41131945418321    0.85822451880927   12.01846946937564
C         0.24936069895037    4.57240886935210   11.47092775258506
C        -0.53981706068396    5.73166382150516   11.64300817698647
C        -1.84498976666667    5.66385915440786   11.03158702759816
C         1.71161231401314    4.53328832789061   11.86662751798286
H        -0.15476449877218    6.59689671642306   12.17708469014757
H        -2.47401277589463    6.54878128955507   11.13802756285685
H        -1.85037560310167    5.30603595848741    9.99682611166685
H        -4.93161688535480    4.77355635821376   11.04215208669974
H        -5.96833122776586    3.40850230480582   11.48624439385746
H        -6.42770823563517    5.25156184964411   12.96655990649957
H        -5.65586553239112    3.98750704567884   13.91333231275622
H        -4.84694599677059    6.27304859124968   14.47619040961317
H        -4.26037262127168    6.46492670066829   12.81453059538501
H        -3.89381170738098    4.58022350700308   16.20206589792325
H        -4.01628518462660    3.21696487492619   15.06545801771935
H        -1.35628669618643    3.90163909299098   16.38121450691763
H        -2.55426168396421    2.85786115812871   17.15583316956056
H        -2.49961340598790    1.39675946947218   15.06321075247231
H        -1.00187914113979    1.45947100032072   16.03285670583977
H        -2.32173653590406    0.54415036289173   11.83624312532620
H        -2.68634713394669   -1.65562009739812   12.90444722797383
H        -4.68190920649373   -2.01117819878524   14.32517659293802
H        -6.31046851134854   -0.18695480586047   14.62704151379334
H        -5.96624513959243    1.97691601831792   13.54506604416738
H        -5.70428126852946    1.44753129645100   10.40876396029221
H        -5.91015080311670    0.60863768988199    8.11097040802164
H        -4.08198977961064    0.95819089507334    6.49353966394206
H        -2.02994043609204    2.13798500952392    7.19336318247956
H        -1.82090407931170    2.98464966264869    9.50403758989202
H        -2.09730963668721    5.81766903203961   16.95308949748478
H        -1.20572362403658    7.88765874366272   17.87306270263618
H        -0.77360173690564    9.82833947230771   16.41154173803867
H        -1.26711186204813    9.67154704823324   13.99514903694903
H        -2.15280536129278    7.57969397014240   13.05806813642827
H         0.02638731544831    5.14429461363142   14.70750610162335
H         1.89716030324625    6.08771169612068   16.01557841824930
H         3.74290121193554    4.61607426843708   16.75506468734031
H         3.68893208633098    2.21284508048052   16.21053561135706
H         1.79890008687708    1.26555173419366   14.95789300158422
H        -0.56111403482599   -0.30080796277161   15.04831267610646
H         0.30951480751597   -2.36615972026927   14.10351177652428
H         1.25615112549853   -2.40721655760290   11.82640186343652
H         1.30122531764004   -0.33190027480234   10.48294434199291
H         0.39639150680207    1.75787756689345   11.41538282994007
H         1.99056007122889    3.54640252241233   12.23640036934003
H         2.30730644983454    4.74158845587499   10.97597346964434
H         1.93784932015482    5.27979064144292   12.62499340993947

