49
CSD_code = SIFYOX | q = 0 | S = 0 | Stoichiometry = C18H28ClNiP | MND = 7
Ni        0.49927816639347   14.37453770656165    5.51488947506827
Cl        2.28082406814049   13.54292294501682    4.84610612646297
P        -0.21234938308100   12.46000119881024    6.25320460826547
C         0.93905654853477   16.28903377860980    4.88139676336695
H         1.90633854942984   16.71932726597919    4.66358455112634
C         0.27871258452112   16.34472680005506    6.12270752667506
H         0.68021186241314   16.75547162731904    7.03782381706162
C        -0.98743397666099   15.74305611979703    5.96780084975887
H        -1.76477618471476   15.73159038560861    6.71809597390205
C        -1.24568631146662   15.59089530967632    4.54530899051414
C        -2.38461420717510   15.25387227024226    3.82331566099950
H        -3.31165905474554   15.02053674952775    4.32973705302116
C        -2.30942877208533   15.23895724846029    2.44144916815103
H        -3.18794627085034   14.99114500487691    1.86357908403942
C        -1.12277317624863   15.54206068319916    1.77949676499647
H        -1.10109803043983   15.51990296780775    0.69982521774725
C         0.02413413284032   15.88101188024240    2.47620755801391
H         0.94103065510249   16.11779067018203    1.95618322862386
C        -0.03245610177691   15.91807884773028    3.86504744441446
C         0.75879390559121   10.52304559771234    4.40772820288762
H         0.51914976199690    9.92511649454796    3.52986011987863
H         1.19608754432430    9.86332931884977    5.15255710520917
H         1.49398049487523   11.27227918154484    4.12416673290865
C        -0.51349043540170   11.18748513253989    4.92277160119419
H        -1.17048117011590   10.41513608375375    5.33514942098925
C        -1.22428437787717   11.92079600802049    3.78642109659731
H        -0.58278315223804   12.72650418572791    3.41958189013712
H        -2.16435097136990   12.35698028619433    4.12095893745122
H        -1.43371084166617   11.24629535435837    2.95844618385794
C         1.64991276557053   12.74409553052926    8.30560995866369
H         0.99715234739860   12.93962951712954    9.15177990146037
H         1.80341468502507   13.67881946161440    7.75248620147759
H         2.61469595549115   12.41620602437076    8.68664767575243
C         1.06936789755444   11.68796515836715    7.36543589743913
H         1.86001552152836   11.43727442487119    6.64772265613478
C         0.64933135900132   10.42627761565958    8.10805481790352
H         1.52620708724972    9.96838757650324    8.56371443883971
H         0.20241212629847    9.70008903971769    7.43289163500050
H        -0.05671317606993   10.65079569664097    8.90367276845565
C        -1.71048522624027   13.25666347831767    8.46546662296921
H        -2.66973630925536   13.63364621311790    8.81813132685673
H        -1.02352734432202   14.09722272124353    8.36855549640036
H        -1.32197216544724   12.57640282498564    9.21901633103697
C        -1.87699300147579   12.54323859803413    7.12509923028752
H        -2.46158691432303   13.19888075605630    6.46590443449452
C        -2.65947088225026   11.24478543043417    7.29653862221661
H        -2.07886125254784   10.48406465722125    7.80864296477991
H        -2.99353359828208   10.84912656128416    6.34097626820534
H        -3.54720573114590   11.44854161094254    7.89485159829867

