55
CSD_code = SIFYIR | q = 0 | S = 0 | Stoichiometry = C18H34ClNiP | MND = 7
Ni       -6.18443025995750   -2.22508242921893    3.17133837811131
Cl       -8.07000814447363   -3.02612442425148    3.55166455562218
P        -5.41151752943322   -4.12759745337218    2.47543876234959
C        -4.66276974600351   -0.87062904575812    2.97239881515744
H        -3.69635391539377   -0.95090040765358    2.49372560456716
C        -4.84710159088672   -0.95626035385595    4.40911593616031
C        -6.15978527636760   -0.59535188288100    4.66608027962070
C        -6.78111247205348   -0.20589398202128    3.38990793102891
C        -5.80395773015378   -0.26165637489235    2.38151000061079
C        -3.74920664027585   -1.22557280344745    5.39172726375987
H        -3.34077534466944   -0.27863314541488    5.75199317181832
H        -2.94068347888337   -1.78375549715848    4.92326585263133
H        -4.10488174022875   -1.78752177490390    6.25344217638988
C        -6.83111638170496   -0.42985323097534    5.99074270775909
H        -6.23793775154094   -0.87689818665014    6.78534067502919
H        -7.81602704194337   -0.89514020664886    5.98645520501610
H        -6.96113200206289    0.63206682791835    6.20914055594400
C        -8.12623768603065    0.43750645203422    3.29879376443503
H        -8.10158866019172    1.40532181484476    3.80410345156188
H        -8.88569227147747   -0.17600369932668    3.78186236227606
H        -8.41370022431733    0.59237840891078    2.26126650865259
C        -5.89354881629176    0.29077399367158    0.98955935823290
H        -6.82089567742191    0.00599788171172    0.49381702519142
H        -5.05775208069391   -0.05834728088200    0.38553991511312
H        -5.85359022942630    1.38157229610383    1.02600243975980
C        -3.60644935730995   -3.30738569260813    0.51752947160494
H        -2.59825333245033   -2.95059390310782    0.30953785855429
H        -4.27596669822919   -2.44901477182535    0.55917473502235
H        -3.91138552703705   -3.94681616295531   -0.30691333045191
C        -3.64206583201028   -4.07161555350609    1.83907851770903
H        -3.13390120117874   -3.45660697384428    2.59388891113842
C        -2.87686466826085   -5.38660447040112    1.72590229860560
H        -3.39902064776220   -6.10946150059060    1.10736231990099
H        -2.69064999900809   -5.82801801104862    2.70153916496968
H        -1.90877317837399   -5.18880990049052    1.26597843491826
C        -6.67303681924450   -6.08268652052011    4.11325720828574
H        -6.57277327338368   -6.70955807295054    4.99804542618552
H        -7.02943534974041   -6.70811384146110    3.29900324069266
H        -7.41460666208744   -5.31379108241214    4.31724060337480
C        -5.32310062404640   -5.45259637900218    3.78757041801234
H        -4.64386037932363   -6.23677489932066    3.43891674359375
C        -4.74364309621851   -4.77475300320180    5.02791966311195
H        -5.39492239542591   -3.94309478233922    5.31160104467758
H        -3.74579789388469   -4.38428365959298    4.83442445050233
H        -4.68602224160429   -5.47037130231077    5.86307306850172
C        -6.05500539654367   -6.08718933384060    0.45475477779301
H        -6.87226051533054   -6.50900046889508   -0.12891518922407
H        -5.71972064902172   -6.84377188954626    1.16056087254333
H        -5.24333449390037   -5.85861560840112   -0.23151008341260
C        -6.54380674031047   -4.83643097537592    1.17327613420467
H        -7.43042423300870   -5.08794186094163    1.76811798268656
C        -6.96903067540803   -3.74018010794566    0.19691200583481
H        -6.20145280533105   -3.53329977065142   -0.54364773439420
H        -7.17954439642665   -2.82019387119196    0.75474625699580
H        -7.87758822626879   -4.03462112556214   -0.32435796875803

