43
CSD_code = SIFYUD | q = 0 | S = 0 | Stoichiometry = C14H26ClNiP | MND = 7
Ni        1.52894700569992    4.77703076361743    2.19345638156924
P         2.65036416251581    5.08998600210873    4.01710229854683
Cl        0.65524332326960    3.08595160168257    3.00553940070890
C         2.35118484465596    5.13325499481213    0.21304234577157
H         3.31092323139575    4.86698744831946   -0.20005111746977
C         2.04851772489237    6.33198321739046    0.93001394182417
H         2.73701326444303    7.15275838231949    1.07015941468529
C         0.63273459943928    6.42713606028097    1.08734364826723
H         0.09338618200681    7.28896882360683    1.44529567274307
C         0.09359281704879    5.22627092383699    0.64360364322217
H        -0.95394558463730    4.97590326576543    0.57533301491833
C         1.16504338160743    4.41985021512296    0.09730957285440
H         1.02051614854878    3.49035217621080   -0.43176960264706
C         3.83025140675617    6.55350726187054    3.93775207647634
H         3.21744251769753    7.33156967548064    3.46348008832187
C         4.35552451554401    7.12397800391485    5.25201441563407
H         4.84836856595139    6.37040838673300    5.85728487632027
H         3.56276186868345    7.58228824304354    5.83737207254883
H         5.08480671112576    7.90135776970219    5.02549292444433
C         4.98186706806382    6.22356824960599    2.99082206368161
H         5.47209703904923    7.13654513105878    2.65518510036083
H         4.61423199677801    5.68830152265664    2.11596394777647
H         5.72657542379238    5.60813070319883    3.48904248498551
C         1.57683975206671    5.52230799150392    5.48111183330684
H         2.20774799805780    6.01853135039645    6.22518559481529
C         0.90483671437865    4.32073875296310    6.13619915566194
H         0.18794461441980    4.67198936222617    6.87660817002040
H         1.62715589505035    3.68695562564893    6.64375344322435
H         0.37449285483378    3.72756412599729    5.39563433321796
C         0.52713125762975    6.50115722894242    4.95638538500599
H        -0.04290891528286    6.01745437141314    4.15674210519905
H         0.99242752405331    7.40109744458146    4.55584510614621
H        -0.16385967782386    6.79199769517065    5.74516862282774
C         3.56129472388252    3.54181323630076    4.51607019089575
H         2.73474790380468    2.88385989752529    4.81038471330229
C         4.53156979088465    3.67963679509073    5.68201848884849
H         4.84395978014420    2.68828071816698    6.00744815528775
H         4.06681061777466    4.18103285138363    6.52794174019233
H         5.42453920745945    4.22747204666485    5.39126921452520
C         4.22079260869248    2.90571932251835    3.29318016713828
H         5.14447118216552    3.40943187218132    3.02186795233985
H         3.53205355207765    2.94861298682153    2.44193420779422
H         4.44690440140456    1.86035750216974    3.49216275469971

