119
CSD_code = SIFZOY | q = 0 | S = 0 | Stoichiometry = C53H61N3OZr | MND = 6
Zr       13.25640230867583   11.16514282556898   12.88908978439324
O        12.86215356768234    9.42549904980093   13.82062084269611
N        14.91899154844793    9.40469133948749   12.22727686709322
N        15.91731708652128   11.28791068800047   12.72026255402544
N        14.04130237284251   12.61600891774643   14.16973491500179
C        15.87765542499640    9.58388970655953   11.13139891271046
H        15.34197706330099    9.72988384537884   10.19049142600365
H        16.55414192898483    8.72763736069252   11.01596318517503
C        16.67220647518923   10.83805778939872   11.55548026814808
H        17.70584952904712   10.56472597109898   11.80950427226233
H        16.70228642480708   11.60809723129859   10.78826110752172
C        14.27886534963839    8.15280852669527   12.45286753106282
C        13.20605063786011    8.22024305316684   13.37560911644430
C        12.58604338769536    7.01301532070399   13.75699005418383
C        12.99498717351273    5.84094615281442   13.13129387020629
H        12.50738632105398    4.92662779003480   13.41072112355244
C        13.98048467569174    5.78618051102395   12.15772384124413
C        14.63524988153592    6.97032895254861   11.83781089652155
H        15.42405671204429    6.96697754111115   11.10189940843771
C        11.50825958473952    6.98856774156866   14.83708291962619
C        10.31271289468386    7.84809940502533   14.40888660244892
H        10.61632536609905    8.88440973694653   14.29419333064298
H         9.52838110989670    7.80036572128635   15.16191367249198
H         9.90533545054734    7.49304329166930   13.46433538857868
C        12.10489214814901    7.55159621112456   16.13318498410209
H        12.92153053700335    6.92114192093324   16.47764164866419
H        11.34434241561892    7.59801297245728   16.90995768812367
H        12.49115186295253    8.55183151004377   15.96735216996470
C        10.98803915484629    5.57898451824534   15.13804163040194
H        10.50366513399473    5.14056564334259   14.26857390366012
H        10.24995196937418    5.63835802829833   15.93567298671434
H        11.78940893439494    4.92482536037124   15.47397858166948
C        14.38620294276570    4.49820333426362   11.45521470415096
C        14.16181700693057    4.65995310773566    9.94495194836064
H        14.76323228421363    5.46839547427584    9.53817692092055
H        13.11578437566816    4.88071849053161    9.74422764300321
H        14.42811389325928    3.74252147809773    9.42396584404893
C        15.87031939157594    4.21357139139409   11.73002614867097
H        16.50611979244509    5.00521637861997   11.34217147702440
H        16.16834899742826    3.28065558003381   11.25589687299297
H        16.04412838416202    4.12569249780870   12.80061771556846
C        13.57946622372417    3.28583711426872   11.92740857775431
H        13.90737799843589    2.39963380213972   11.38732205246114
H        12.51848753929632    3.42350635072557   11.73414241071355
H        13.72865374879872    3.10540040800368   12.98935653730579
C        16.35363594967293   12.37415328271234   13.52893479160292
C        17.66404959966237   12.81022540593891   13.58067747192565
H        18.41451540097876   12.32914128489510   12.97062649363925
C        18.02881053859975   13.87097135267118   14.39622620238426
H        19.05372900343946   14.20655704474999   14.42196780915243
C        17.06466053648426   14.48202885623496   15.18006485867002
H        17.33899661649020   15.29904057063124   15.83162867902839
C        15.74967660175324   14.06934952316287   15.13307847602205
H        15.00653704317345   14.56565995788536   15.74105340945311
C        15.33897636686026   13.02072172663413   14.28901764516270
C        13.07185111136516   13.24734441640497   14.99141371160949
C        12.47179751510633   14.46200471964776   14.62036905190384
C        11.52429086378014   15.03505575513447   15.45228516662779
H        11.06861330357745   15.97206573111951   15.16309691453825
C        11.14231176951838   14.43786384802493   16.64696362513845
C        11.73194938545503   13.23371218005225   16.99881133299849
H        11.44557856584145   12.75048667146138   17.92259244243430
C        12.69052723299745   12.63657276583094   16.19449086172106
C        12.83662452489311   15.10500443924137   13.31572190944367
H        12.25630717192418   16.01079436916694   13.15726961220515
H        12.63836824358489   14.40488345281038   12.49713590352555
H        13.89559908128946   15.36451200595527   13.30007436548836
C        10.12281729186480   15.09396897543884   17.52867168198145
H        10.53096895754417   16.00644839087744   17.96333418857652
H         9.82455375016825   14.43187507814505   18.33737163019779
H         9.23876039700094   15.36603363439641   16.95463480199503
C        13.33421554708087   11.33877313979591   16.58403139813446
H        13.14534073400728   10.58920068129535   15.80634167916543
H        12.93734946762962   10.97614058279254   17.52929966451724
H        14.41270904852745   11.47114659053155   16.68662114482267
C        15.58664366988541   10.02876490331581   13.38157151757571
H        14.88602708044570   10.20496798291598   14.21492765050852
C        16.79239333921826    9.23634266204395   13.94937479063111
H        17.28939914249698    8.66358405256677   13.16641517259789
H        17.49807388910064    9.96803924875108   14.35544615682378
C        16.34299977901332    8.30709563326800   15.04064016916324
C        16.03925027356333    8.81568041512393   16.29817282316866
H        16.16883760475415    9.87235434758406   16.48872742250156
C        15.59911287783229    7.98050277361267   17.30775449128494
H        15.36904463645162    8.38776479041184   18.28103472815343
C        15.45422759343862    6.62353762496922   17.07083032507869
H        15.11225093696135    5.96985565567614   17.85979283815382
C        15.75555832460430    6.10893119123613   15.82176041218253
H        15.64421391471532    5.05203138046248   15.63003847936528
C        16.19973507885053    6.94537918028392   14.81403749848396
H        16.43447533113699    6.53403429922031   13.84406946403711
C        13.14431029642949   11.79733108077486   10.72154925745492
H        12.70699278186185   11.00361558216289   10.08964247793546
H        12.39818547371661   12.60898883516563   10.79626179532980
C        14.33870897031741   12.34834582195933   10.06727729674746
C        14.99884778468905   13.46814256794476   10.60069643734685
H        14.62593019802670   13.90865296785624   11.51722206567614
C        16.11521689683344   14.00374741806231    9.99147334772621
H        16.60413556875808   14.86205850172475   10.43006496119998
C        16.61867485215202   13.44312296464492    8.82535446716478
H        17.49204703992266   13.86262207497000    8.34915768566571
C        15.97785478946549   12.34536532468399    8.27333980160347
H        16.34852772098929   11.91155315810169    7.35493077533853
C        14.85538856223821   11.81235390057607    8.87857762825715
H        14.34766723776705   10.97613998705474    8.41291146650382
C        11.08043087905153   11.69870357780798   13.23256602497770
H        10.81495609456841   11.03092583250300   14.06587707897585
H        10.80297704978362   12.72382921535822   13.50869871103177
C        10.40125294714230   11.30060317459408   11.99146259332410
C         9.65623257184273   12.21611589175509   11.23553690231531
H         9.55367396677354   13.23241525304639   11.59561197077242
C         9.04923215363319   11.84905082712952   10.04986495460233
H         8.47931117471228   12.57828978895907    9.49120262039158
C         9.15809733799642   10.55157621709175    9.57822187106375
H         8.67631113282401   10.26248009389377    8.65618588925168
C         9.89763777065551    9.62831144845464   10.30330447258678
H         9.99472979993623    8.61410660542073    9.93981228210047
C        10.51753374193436    9.99422492525498   11.48162793156743
H        11.10341310252788    9.25704434601932   12.02587203271172

