58
CSD_code = SIGCUH | q = 0 | S = 0 | Stoichiometry = C25H26Cl2N4Ni | MND = 6
Ni        4.41923961073903    2.48788684873880    9.77672252824878
Cl        2.21097127721626    2.41615521756902    9.84576198342379
Cl        6.61609152811190    2.44443932128286    9.72484461074305
N         4.36346944391392    2.63386143285306    7.45758361115185
N         4.36635715265392    0.72624835516586    9.32507567889600
N         4.47634643685940    1.49575661771313   11.87962804717860
C         4.38143470584324    1.43615651976831    7.02301684030232
C         4.27971150693590    0.36927858797636    8.03490700089493
C         4.09084007407276   -0.96246943144595    7.66781568811330
H         4.00009783035441   -1.23174115538987    6.62894824823775
C         4.00127261955768   -1.93188505588702    8.64837662770270
H         3.84047868518064   -2.96641947782125    8.38573131763965
C         4.12638477960802   -1.55347867381639    9.97189897071510
H         4.06688610061694   -2.29168627997930   10.75379451289432
C         4.31194418459392   -0.20836483398214   10.28678143219050
C         4.44271548144742    0.23842183196565   11.68604177048601
C         4.55490818621732    1.04889710927627    5.58314767491752
H         4.83449790681732    1.92238576600207    4.99828043272958
H         3.62634093329756    0.64522193800991    5.18118011112997
H         5.33409147347341    0.29510566565190    5.48708698103981
C         4.57557950756972   -0.79198576193267   12.76898241158033
H         4.83093870953806   -0.30651032688458   13.70835584066536
H         5.35748101413510   -1.50602260650280   12.51700924289824
H         3.63798671609707   -1.33084561880758   12.89928773306076
C         4.38852908672963    3.77974651707665    6.68681912149094
C         5.32492959086894    4.76871769370825    7.00026755198030
H         6.04355696195801    4.57112016333206    7.78221214220224
C         5.33734244388285    5.95410706185061    6.29950838444364
H         6.07724749072914    6.70574735403693    6.53635466090377
C         4.40427138697689    6.20846759763528    5.29677702528674
C         3.45629956064673    5.23491764055121    5.01420893120901
H         2.71209753108270    5.41924176528950    4.25204630376830
C         3.44820073836901    4.02757093815252    5.68712457473138
H         2.68453363997078    3.29263568084948    5.47923744466878
C         4.43294055839677    7.50829311746118    4.55120164306359
H         3.57715607369839    7.59615712555027    3.88657030858494
H         5.34258711099178    7.58144391112807    3.95491141916827
H         4.42388522403722    8.34745331444654    5.24543662905658
C         4.52103187130003    2.14703029296200   13.09526157410528
C         3.52070579357555    1.98573389843863   14.05580639491695
H         2.71502734382312    1.29075702619059   13.87117109454965
C         3.53314858308542    2.75654966640040   15.20047891896658
H         2.74648257153239    2.63399489685529   15.93160318004248
C         4.54165665467133    3.68544175537287   15.43346428858071
C         5.53546103733030    3.83719030117520   14.47287482426530
H         6.32795638608994    4.55483579897322   14.63481864483038
C         5.52454261433009    3.09358798145195   13.31077316428357
H         6.29233035875895    3.21493818980601   12.56104968025011
C         4.54250079227765    4.49995998927676   16.69210047730350
H         5.35943332416855    5.21748442078136   16.69192955141331
H         4.65281937228159    3.85237880517859   17.56163962854749
H         3.60232022627512    5.03997344682395   16.79969840987534
N         4.41284316593053    4.14314434631241   10.29506171316485
C         4.38978291495979    5.12961274364043   10.87989438387674
C         4.36955233146655    6.36263182354064   11.60239404572507
H         3.57503927873771    7.00117470893112   11.21721427806538
H         5.32973926510877    6.86650832234354   11.49397644262353
H         4.18778285110458    6.15004571495506   12.65625386722793

