55
CSD_code = SIGDAQ | q = 0 | S = 0 | Stoichiometry = C27H23N2PRuS | MND = 8
Ru       16.10843691917682    2.36067406417776    2.48659390064747
P        14.35095556815513    3.32860129140334    1.44999582260019
S        15.75100170381233    0.25962198948971    1.25463326707613
C        12.71872599684738    2.54307448099175    1.62186798468717
C        16.76864440083222    1.11418543731202    0.18970772486651
C        17.87328360035260    3.12449766499888    0.00372898023540
H        18.12181892656853    4.09218176102968    0.42529067457121
N        17.08341150012548    2.33446730149669    0.71865286681361
N        17.17998262751388    0.66951009117214   -0.98336162468749
C        14.25397825609905    2.25258835072666   -1.07869372058214
H        13.88705636326309    1.37944321262410   -0.55413829744726
C        14.04475584495583    5.05908704531815    1.93747908840763
C        12.56367028316429    1.56584381463164    2.59649471422398
H        13.42227221550127    1.29183068536123    3.19975488427917
C        14.48483098187401    3.43175683245137   -0.36929887840157
C        18.35044489078039    2.72435110399190   -1.23487535139672
H        18.99163879957126    3.36464339671245   -1.81625644774986
C        10.42293114433160    2.26363871359733    0.98129299117505
H         9.58773300751822    2.52929592957404    0.34931011910260
C        11.64332063147339    2.88882230708852    0.80718799776976
H        11.77275432261860    3.63871842369799    0.03777333115590
C        16.63572965581147    3.76365566993073    4.19525501706863
H        16.54937754623357    4.83760799610647    4.29470346552469
C        17.79359024694966    3.04787800832595    3.82328045918994
H        18.73944350408642    3.48413882577101    3.52857236621045
C        16.23502660147256    1.52786801313102    4.55193625237599
H        15.79674433185345    0.60510978199407    4.90909871462709
C        15.19673333035061    4.49219094820294   -2.40463641251184
H        15.56187524623350    5.36753580163158   -2.92254812317386
C        14.97604516206625    3.31626174271819   -3.10162570876972
H        15.17476926657431    3.27164216374896   -4.16227935223964
C        14.49812097844703    2.19793459256134   -2.43731001903886
H        14.32604477545928    1.27797553174787   -2.97535662132587
C        11.34045576061291    0.94248789911800    2.76637686900488
H        11.22223357725501    0.17874106327819    3.52080239110147
C        17.54611013938029    1.66225132612046    4.01089869169453
H        18.28553442383116    0.87435690068180    3.95356803736545
C        14.96025400925370    4.55176827219437   -1.04231259598967
H        15.13524859366213    5.47288877657161   -0.50454157583249
C        15.66190718145354    2.81185950199169    4.64987415707692
H        14.73109217907217    3.06358863644291    5.14381274795882
C        10.27001549228636    1.29377437403321    1.96072412661894
H         9.31467854622440    0.80618085997269    2.08885939007401
C        17.95984857138714    1.46914180469025   -1.68873734894113
H        18.28030534833129    1.08410996373906   -2.64698268503451
C        12.80711024272437    5.56730557923746    2.30949557238637
H        11.93672882909519    4.92744265668459    2.31279805720553
C        15.16303187553066    5.89047462571962    1.97033700123605
H        16.12977610015232    5.46908150749229    1.71655575262995
C        13.80148850304544    7.72185409296327    2.69347120100768
H        13.70365192229436    8.75681883286039    2.98627370292645
C        15.04244519369985    7.21676503606712    2.33647647144079
H        15.91256810128639    7.85755742585967    2.35246005067164
C        12.69118540487535    6.89512512984940    2.68605393405062
H        11.72678137459469    7.28539276070352    2.97720598620099

