126
CSD_code = SIGDUH | q = 0 | S = 0 | Stoichiometry = C55H65NO4Zr | MND = 5
Zr        3.77034655335139    3.87056131810754    2.24003880673908
O         3.38798839209383    4.23199106461607    0.37462923128182
O         4.03622138787992    5.53289949643272    3.20043932719518
O         5.61181556694897    3.18202606532407    2.04955124061126
O         1.99571149493489    3.38623567351670    2.95967812128432
N         3.88242972736586    1.80027269837297    3.14945612489112
C         5.00642766756790    1.10789202842171    3.02722938601528
C         5.11376115277120   -0.16617665451571    3.56224966318946
C         4.01285175588827   -0.70933546098980    4.23019976627463
C         2.84448633100905    0.05012219765962    4.33822418168201
C         2.81949378628279    1.31779871487867    3.77831169153193
C         3.90050877484701    3.80657683057374   -0.77910338718227
C         3.35601949895658    2.66634330679901   -1.43124672461683
C         3.96387099672841    2.19866232717896   -2.58687678221915
C         5.04661715642599    2.84685464224375   -3.14549517149681
C         5.49720749975814    4.02489714774939   -2.58219461897851
C         4.93900052557631    4.53693598037726   -1.42025495521554
C         3.50547283601310    6.04905952595467    4.30808720999914
C         4.11024333040911    5.81364821088911    5.57311252503530
C         3.48684503342018    6.29309236140745    6.71564102100176
C         2.32798172114208    7.03933163859954    6.64600251633420
C         1.81002842867438    7.37536263498610    5.41036588588286
C         2.38036796042170    6.91590199284150    4.23247960242243
C         6.05426245175225    1.90090850032127    2.25864997042045
C         6.35938056124812    1.16364257538730    0.91441884392232
C         7.72199932562135    1.54289016958531    0.42042121265247
C         7.88368961407245    2.58544093037317   -0.48129115479257
C         9.14796072633675    2.96403730521214   -0.89703054090823
C        10.26709013154408    2.30552725717557   -0.41723452100697
C        10.11498098764707    1.26473501595114    0.48319874438038
C         8.85100432006459    0.88887779868893    0.90081389218774
C         4.08274288814019   -2.05881025231078    4.80767324843853
C         3.00692581225973   -2.93583111178931    4.68871605091174
C         3.07699718185486   -4.20727116240901    5.22665832850950
C         4.21628721830508   -4.61707902250608    5.89928418612631
C         5.28902304728279   -3.75031754084572    6.02703206332134
C         5.22650050505028   -2.48188847074458    5.48113781562297
C         1.67618146900479    2.32314445695334    3.76536338977796
C         1.38073271269504    2.77269742006902    5.23295963002118
C        -0.02507823513985    3.27994693877170    5.33564661522754
C        -0.30624481792938    4.62318917809713    5.12842823065220
C        -1.61097122801360    5.08142106705177    5.17069384287524
C        -2.65149278019139    4.20332091418457    5.42139614383587
C        -2.37987520137624    2.86154581168158    5.62837429914771
C        -1.07543515715669    2.40325710935605    5.58189922138645
C         2.11171247822980    1.96764129894819   -0.88055832085201
C         2.50038909340936    1.23465491079013    0.40877819813067
C         1.00816976157502    2.99269903062000   -0.56997871268495
C         1.52213646191496    0.94338482092720   -1.85990597832405
C         5.36832382866081    5.90584636756899   -0.89557713975497
C         6.45830508609496    6.56062278275713   -1.75488704990214
C         4.13500369057238    6.82109639180051   -0.93112860716974
C         5.91654351053345    5.81200872260327    0.53554699523208
C         5.43585070215249    5.05778608235318    5.67969211741075
C         6.06081189656056    5.14881564700729    7.07866012019816
C         6.46102242673771    5.62157222269804    4.68147503349221
C         5.17833301448337    3.58018999775748    5.36137105963348
C         1.86573537807498    7.40817958350934    2.88109904465797
C         3.01837068309786    8.15317611110718    2.19072181932391
C         0.69115443529089    8.38756299959589    3.00884686124322
C         1.38866325072894    6.24105176300855    2.00488315078692
H         6.02288595517053   -0.73718034500360    3.45403073656879
H         1.98507694508013   -0.34175246741512    4.85986582979064
H         3.59208241661069    1.31590950047836   -3.07962887974281
H         5.51482726800083    2.45615607459564   -4.03647720942080
H         6.30382172249059    4.54296147756094   -3.07344465485989
H         3.90567935267599    6.09671456430726    7.68845713530077
H         1.85037203642502    7.38872646090667    7.54905543910098
H         0.93995566201400    8.00980838880299    5.38319934893769
H         6.99040102874978    1.90552044336851    2.85804567771735
H         5.59254860930489    1.47253415650353    0.19788146954805
H         6.30305852072648    0.08413961702401    1.07148532038825
H         7.00955086581128    3.09335881475135   -0.85804083989122
H         9.26105614814782    3.77532018074292   -1.60155587450832
H        11.25391926067037    2.59951953933573   -0.74358566911014
H        10.98379692002930    0.74442842339028    0.86036146783010
H         8.73861026731189    0.07443970416892    1.60402698793669
H         2.12346536031188   -2.62606969458711    4.15009744544288
H         2.24007190365197   -4.88139397848300    5.12068538315611
H         4.26802995383640   -5.60884802606617    6.32251253431748
H         6.17768292560998   -4.06419901621658    6.55417357412376
H         6.05863546096045   -1.80320058538155    5.59737731235746
H         0.76845140450659    1.80583664646310    3.38549718465379
H         2.09259362058469    3.56743303813324    5.47436869051287
H         1.52781662826890    1.92752024888351    5.90896328911405
H         0.50782050636623    5.30503608166309    4.93825700769722
H        -1.81770086866020    6.12965671101142    5.01016087150913
H        -3.66997340939942    4.56146375180916    5.45697273412867
H        -3.18677062311556    2.17056063547578    5.82654810720498
H        -0.86940547424480    1.35367513935906    5.74424568992941
H         2.92537889373867    1.96703974335747    1.10535063257047
H         3.23606621450066    0.45573187295296    0.20132365861432
H         1.62454005125400    0.77106858613989    0.86462074787201
H         0.07585375494924    2.47719696993944   -0.34381306901284
H         0.84502299009009    3.63762930510425   -1.43127994710462
H         1.27508696277899    3.60953552948768    0.28928019035750
H         2.20378520739242    0.11432143469965   -2.03458577822068
H         1.27757927419237    1.41037020195556   -2.81071866187248
H         0.60640150052880    0.53232513345155   -1.43857965491119
H         6.12677789047138    6.70161006082896   -2.78091329878310
H         7.37236373405355    5.97151120285054   -1.74943182066913
H         6.69134976541070    7.54100358536300   -1.34344169187164
H         3.76569897343717    6.90673225861470   -1.95205772187961
H         4.39299374969233    7.81522428628777   -0.57198743253123
H         3.34375938468987    6.41107779464444   -0.30745667538986
H         5.14445419475352    5.45978170145785    1.22851256994501
H         6.26529592594169    6.79294353984449    0.86057937304898
H         6.75511653223877    5.11672289302256    0.57599771001085
H         6.21285665761017    6.18508722346087    7.37009760543938
H         7.03004800105799    4.65330067018799    7.07008815112177
H         5.44620015043015    4.65440053897828    7.82726007166160
H         6.52227416830815    6.70360955659559    4.78079941959806
H         6.18676980076168    5.37475444332949    3.65479160211676
H         7.44512900220231    5.20070795192580    4.88270639937947
H         4.72099771321986    3.51736510227483    4.36659490324858
H         4.50922309232373    3.13833522009873    6.10170425453621
H         6.11422015862263    3.01979726399266    5.36259100418232
H         3.86602966878477    7.48680791743885    2.04754018844315
H         3.33606996553082    8.99484450157592    2.80445066734918
H         2.69596743672760    8.53271610373364    1.22332555884169
H         0.39987984537701    8.72175247388776    2.01473720642861
H         0.96584635994611    9.26628603752034    3.58755441822671
H        -0.17280121067451    7.91116680339775    3.46619729010832
H         0.99419745849324    6.62533073221473    1.06345868249105
H         0.59733833514747    5.68667434674943    2.50944348483417
H         2.21128321867492    5.54913416433271    1.79275108628020

