108
CSD_code = SIGDET | q = 1 | S = 0 | Stoichiometry = C58H39F4IrN3OP2(1+) | MND = 6
Ir        0.56039063013301    4.12043493124829    4.93724975376130
P         1.65797400838234    5.76188368764743    3.24934421145167
P        -1.55469559701006    3.45921712756212    3.74245008989296
F         5.46665709880108    3.49898549792377    7.14627858706826
F         3.07418773653566    7.35692839664804    8.23682547953826
F        -1.90088840366833    2.74716823648512    9.55194792998456
F         0.28048089915605   -0.64194737648711    7.20311595505252
O         0.09796861568544    3.99054104636390    1.70120121667897
N         0.63066686679347    2.72171638577166   -0.71870664848087
H         0.85686259077861    2.23077594822126   -1.56940840162890
N        -0.12560147345539    5.79331301405186    5.87698223020055
N         1.33093874538343    2.32428646540017    4.30229039230451
C         2.10707919183008    5.19300955291877    1.56745166705373
C         3.24264077308712    5.58777165691096    0.85647908851295
H         3.91927606877117    6.31095786992215    1.28318160102984
C         3.48793301358846    5.04650728321486   -0.38941293155658
H         4.35821256220951    5.35794631922157   -0.94486286140347
C         2.64275904061524    4.08854253412658   -0.93501888709730
H         2.86311328186264    3.65116020325098   -1.89641006302202
C         1.50393718819547    3.69016176838527   -0.24968462676192
C         1.23106082662956    4.29071371573732    0.98393552288453
C        -1.42243487962111    2.32900374593238    2.30751599717414
C        -2.16316105037297    1.18828515865619    1.99987900873665
H        -2.90682983605514    0.81510056806885    2.68524644327468
C        -1.94571214577994    0.54346070440245    0.79750618971845
H        -2.51711250857681   -0.33938550047591    0.55764052788743
C        -1.01065691459820    1.01064132940745   -0.11629182124074
H        -0.85535378278131    0.49372193684431   -1.05049266393062
C        -0.29120098949609    2.16512333932332    0.15536107626361
C        -0.52666325434953    2.81254041470232    1.36834040053561
C         3.31340152885765    6.30551223178014    3.81532704422598
C         3.62411825111955    7.59738889567104    4.21837289835263
H         2.88587539532054    8.38285735652143    4.16685823455107
C         4.89759895534961    7.89719513558852    4.67283102886902
H         5.12669620405367    8.90545862526024    4.98287685174334
C         5.87233740202589    6.91667753877271    4.72550810612168
H         6.86296691004893    7.15539689773155    5.08007814674126
C         5.57359188634605    5.62772966726536    4.31335651533220
H         6.33082000790174    4.85906236521043    4.34493902289061
C         4.30196823809641    5.32354123606353    3.86961861675893
H         4.07297735981135    4.31585408154097    3.55063660868145
C         0.84760235083640    7.35261547783953    2.82941394960600
C         0.50441289313668    8.23500361984444    3.85328685661928
H         0.74792980787612    7.99479073929436    4.87691352354440
C        -0.13142133607757    9.42993956852770    3.57116144174799
H        -0.38266572371614   10.10399831903461    4.37642051992475
C        -0.44012902799994    9.76126796577899    2.26234584261160
H        -0.93538279232532   10.69422211133789    2.04159855536889
C        -0.10696164326416    8.88973985899838    1.23920420009844
H        -0.33995547437283    9.14193482586280    0.21554734236444
C         0.52951554604629    7.69288899158494    1.51703422055010
H         0.77571185803190    7.02516114393775    0.70521444008089
C        -2.70985235378865    4.61012107540551    2.90724922270708
C        -2.29099998054751    5.88264267173304    2.54436803434748
H        -1.29337905130229    6.20819303436823    2.79977233747866
C        -3.14126492056870    6.72892851504380    1.85463314821479
H        -2.80256135213546    7.71673299982036    1.57961624427194
C        -4.41633527596069    6.30500426136396    1.52187145439179
H        -5.08319683772148    6.96331678690619    0.98656521289390
C        -4.83558023547771    5.02999317816102    1.87162471890609
H        -5.82695289215979    4.69562316678283    1.60590626363844
C        -3.98719086035130    4.18037891192657    2.55562236462566
H        -4.31437010701668    3.18513688883478    2.82095278126362
C        -2.66550879304411    2.56431725753422    4.87552594978901
C        -2.44877963185992    1.21559057800882    5.14527637801294
H        -1.67397936528322    0.67937507712088    4.61497459260986
C        -3.21891148474300    0.55803751298263    6.08647702817454
H        -3.05074105364141   -0.49122664785152    6.27769256529776
C        -4.19825638073617    1.24365153373298    6.78585708643893
H        -4.79538146182449    0.73113204094752    7.52386010763734
C        -4.40659709700084    2.59010392436546    6.53788166201860
H        -5.16502286620032    3.12906990341306    7.08488968321027
C        -3.64279941428023    3.24878320714585    5.59204705695033
H        -3.81883779998343    4.29839875753628    5.40025700878620
C        -1.35922979218760    6.28239172427393    5.76351005341366
H        -2.01478903553775    5.78196611088600    5.06520777058161
C        -1.81754580464537    7.36712787324440    6.48385636308084
H        -2.82678070479143    7.71838011051175    6.34641618805377
C        -0.95378014982333    7.97473267717589    7.38392992686722
H        -1.27246106498128    8.81900881246552    7.97449741284831
C         0.32491041533083    7.46993439435073    7.52112954980691
H         1.00240463342946    7.92040732686993    8.22474673671663
C         0.72957098407288    6.37304960042048    6.75688027890780
C         2.02730657482809    5.72015345476930    6.85345613656926
C         3.11689649421813    6.16999184721417    7.60311943677247
C         4.28545500411536    5.44587045444678    7.71038806484225
H         5.11289564017661    5.81473661349436    8.29276852673159
C         4.34832855960612    4.23274691024094    7.05075373984016
C         3.30747980259777    3.76464315371962    6.26836711630211
H         3.43780228229580    2.81570562462860    5.77176600101576
C         2.14704983735030    4.51053788961883    6.13526389613411
C         2.07146660015850    2.13982082132764    3.21143114614993
H         2.33955025559501    3.02419299500218    2.65253259576607
C         2.51266100187544    0.90370068785074    2.78424561174722
H         3.10678873686625    0.82262592320231    1.88862336740476
C         2.17826208159867   -0.21054057368663    3.53920313274634
H         2.48891917660218   -1.19840047022205    3.23828695106628
C         1.45785292740502   -0.02815668678405    4.70301646273663
H         1.21716543162714   -0.87980161424060    5.31378666332621
C         1.05120790607581    1.25221316132606    5.08445190088927
C         0.31465819503162    1.56884587770271    6.30044025187231
C        -0.05533215388328    0.65831796506362    7.29463808095367
C        -0.79094995739284    1.03082460767343    8.39952020154260
H        -1.06703279208482    0.30791693338362    9.14869865340519
C        -1.16284332176925    2.35812908951860    8.50264864537258
C        -0.80107219652947    3.29896213973462    7.55570484273521
H        -1.12513175407114    4.31562244378243    7.71233374405925
C        -0.05842149691960    2.92133487142719    6.44828121736720

