97
CSD_code = SIGDIX | q = 1 | S = 0 | Stoichiometry = C52H36F4IrN2P2(1+) | MND = 6
Ir        2.22271877846866    7.50254874646928    4.92724577536409
P         0.79520487957822    8.32341559122906    6.68211408774955
P         1.38977058196732    9.42598967300645    3.74326319761926
F         5.01427780415034    5.49838713025518    8.93309262093433
F         2.30587271627534    2.39411698244674    6.73848492060309
F         2.90063794563812    5.44924313166321    0.10847800622439
F         6.81314120927251    7.05445013547515    2.08308870677674
N         3.72089737791917    8.36810410106316    6.03822830670196
N         0.90006563752030    6.44100461121070    3.76057793922535
C         2.83449937275336    5.90163832493945    6.01827895960169
C         2.35670631957363    4.59981694048304    5.93671621180934
H         1.64603611010247    4.30358445204659    5.18002250266324
C         2.78791627853354    3.64124181552621    6.83708413425988
C         3.67960360636032    3.93648705520784    7.85320439388229
H         3.99337730416404    3.18796066354590    8.56150281483791
C         4.16324370293440    5.22615357918080    7.92636589755328
C         3.77909138664925    6.22031031821041    7.02140136362396
C         4.28496033278714    7.58544597544818    6.98989142702035
C         5.29121948491981    8.09079480469888    7.81536308202451
H         5.73784576145195    7.46954918152806    8.57067628761489
C         5.72810508012494    9.39038921401397    7.65722666407648
H         6.51090840323914    9.78254179903970    8.28674294467056
C         5.14745633541890   10.17451724177387    6.67109942228640
H         5.45869671334752   11.19201554779510    6.50154010645723
C         4.14907996537194    9.62050260123727    5.89659841330982
H         3.67942999829620   10.21049032915501    5.12132341100870
C         3.44951835478136    6.93063621419970    3.41280502241817
C         4.81450553874829    7.16494651337574    3.30934979765926
H         5.37404237135617    7.62318269615344    4.11029519317777
C         5.49688733448984    6.81205784480448    2.15837847906330
C         4.85864001464720    6.23807931130596    1.07302048004492
H         5.39588558273942    5.98095384832152    0.17540285576440
C         3.50495266452383    5.99499595640152    1.18023310985586
C         2.77817620882694    6.31234222022168    2.33199584829387
C         1.36577687100811    6.03510380702778    2.55384966380561
C         0.52305325138047    5.37765619475000    1.65568300770149
H         0.89000114582930    5.06635251217156    0.69418287478827
C        -0.78631791410421    5.11233580802860    2.00233915695016
H        -1.43878861360433    4.59862563352684    1.31445500237461
C        -1.23880024832945    5.50931961841382    3.25187267402273
H        -2.24704182520664    5.31279964842499    3.57684162032499
C        -0.36318754095278    6.17444632711433    4.08544105119159
H        -0.69278311631162    6.49984537705549    5.06218316248600
C         0.09494470984961    9.92758844121500    6.16471639019666
C        -0.65736810532035   10.70401782776100    7.04511761703283
H        -0.73961229008355   10.40576801169211    8.08171096960922
C        -1.28290076848022   11.85310282196460    6.59770844725647
H        -1.86130214463761   12.45190683174667    7.28440588891625
C        -1.18705425197665   12.22395186787235    5.26325628029191
H        -1.70708932021583   13.10017761451177    4.90775202882001
C        -0.41213307801996   11.48208879103147    4.39100517996977
H        -0.33238342352494   11.76985305376315    3.35134490851475
C         0.26170549508898   10.34886235639939    4.84338726573339
C        -0.65233666922266    7.37136987465085    7.26169410755680
C        -1.95622235525582    7.85305591799307    7.30924004917884
H        -2.18491435763168    8.85982842361139    6.99207302008507
C        -2.97926358342974    7.03486248177868    7.75853071113500
H        -3.98691658342500    7.41991390071861    7.79944405008943
C        -2.71763739877052    5.73338458960540    8.15175167689825
H        -3.51909832878932    5.10473119856618    8.50705998583225
C        -1.42696702165297    5.23460440082452    8.06960808727085
H        -1.21964066733472    4.21313647644426    8.34972513606868
C        -0.40267868198797    6.04372053501202    7.61675476855829
H         0.59573466227357    5.64197063785787    7.50579420048381
C         1.63121720125661    8.77167429407051    8.24085514725051
C         2.22331979819156   10.02800389681082    8.35730650292420
H         2.09405576954248   10.76218894805402    7.57295889624181
C         2.97073161616396   10.34494077524296    9.47579114279138
H         3.41691982689277   11.32442913808415    9.56019585496232
C         3.14913173559535    9.40983885756396   10.48196917596891
H         3.73678764545645    9.65724649968276   11.35214055276192
C         2.56728998383871    8.15813657001124   10.36994678139103
H         2.70129922341324    7.42702390506422   11.15222314741174
C         1.81533557513793    7.83646742669015    9.25472728709505
H         1.36174871879413    6.85962778806033    9.18262042589556
C         0.28515711333433    9.11249446188258    2.32436799163332
C         0.74685305055830    9.07712339708097    1.01282574644626
H         1.76982210705941    9.33660939532521    0.78695273421331
C        -0.11045557354525    8.72962033021986   -0.01586481506922
H         0.25565727219148    8.71110554459357   -1.03085328824978
C        -1.43033478048091    8.40786748589518    0.25212564060512
H        -2.09571145022769    8.13831096916484   -0.55314658836036
C        -1.89605954534255    8.44007681757170    1.55638335404190
H        -2.92587521994236    8.19730516929615    1.77096265825928
C        -1.04364818524017    8.78257847409219    2.58839046641388
H        -1.41316303459571    8.80493567590388    3.60566754543298
C         2.54382098817854   10.68862094003715    3.10470020889336
C         3.54603692701444   10.22149149273205    2.25251179526454
H         3.59948286077630    9.16666522317125    2.02092627145636
C         4.48467755738022   11.09126269144293    1.73126295758961
H         5.24928261511243   10.71964862067403    1.06637041815406
C         4.44849456985894   12.43416084464845    2.07200228636845
H         5.17904679052529   13.11560500545647    1.66498741467997
C         3.48355264945628   12.89579820371898    2.95123770775213
H         3.46551316656198   13.93673506313674    3.23668645587497
C         2.53746920463005   12.03042131970087    3.47385394051376
H         1.80559481837634   12.40650924196665    4.17389281607558

