46
CSD_code = SIGDOB | q = 0 | S = 0 | Stoichiometry = C19H13F11O2Pd | MND = 5
Pd       -2.65635532358988   -1.20252366480559   -1.91391268868093
C        -2.72429577581185   -3.20312277261074   -2.05964078179470
C        -3.30914585273949   -3.76015589176131   -0.75939642684239
C        -4.52149006066575   -2.94643766879585   -0.28264148170671
C        -4.37869610271065   -1.50135886106263   -0.71995317126257
C        -4.77604200446079   -1.06957158542889   -1.97538557401184
C        -5.42811852338292   -1.97789273848903   -2.98984991793499
C        -4.40606711292845   -2.53973937042092   -3.98068144834899
C        -3.44453297377357   -3.59476908751669   -3.36996393250922
C        -1.45241214644863    3.13674352302697   -2.10815711643007
C        -1.37661141534818    1.59295724177480   -2.01042502777863
C        -0.07324977291699    1.08604935093398   -2.04091882665544
C         0.22188203850528   -0.27434728975654   -1.96688402196810
C         1.73223603538603   -0.60771584901830   -2.02348488266175
C        -2.37856659482244   -3.88311973980422   -4.40055738883206
C        -1.47827312334213   -2.89514962290257   -4.79607799387921
C        -0.46002687626745   -3.13644757763886   -5.70873151803783
C        -0.32054745558626   -4.40824941625683   -6.26104208431291
C        -1.20550476116559   -5.41502978166471   -5.88845989400537
C        -2.21484909803752   -5.14169065712171   -4.96911729376851
O        -2.46203598604598    0.99848394210634   -1.91893631818171
O        -0.52697685763195   -1.26317810236244   -1.84791391217510
F         2.34578326807363   -0.30009505783207   -0.86921476767961
F         1.93685054108907   -1.90968664733432   -2.24324477575706
F         2.37263082391004    0.06195430263653   -2.98968510697908
F        -0.77998004792284    3.73256864713473   -1.11087161628543
F        -0.92182841945341    3.59082438106309   -3.25418038203781
F        -2.71035915617348    3.57799718875696   -2.05421166341516
F        -1.59115976633490   -1.64475224947223   -4.28114563492009
F         0.37317241896020   -2.15916312307083   -6.05802029272866
F         0.64678465712890   -4.65602142619959   -7.14020090133883
F        -1.08746458536068   -6.63444665787222   -6.41206972436999
F        -3.05298497455942   -6.12691643901871   -4.62655560796811
H        -1.68237482412158   -3.55190516323646   -2.12623420143561
H        -4.26765655751901   -0.76380137636061    0.08034736905249
H        -4.95516329583456   -0.00301054018746   -2.12279997583371
H        -4.02232014800097   -4.50922336680514   -3.19667729966454
H         0.74303366919942    1.78311139638651   -2.13593866030228
H        -3.56581670124226   -4.81886471108869   -0.86595239585451
H        -2.52337680330912   -3.68546048806150   -0.00155777324534
H        -5.44179201330806   -3.36354560200382   -0.69674554967980
H        -4.59842939212346   -2.99951336157272    0.80361839086661
H        -5.95057732229600   -2.80126243792800   -2.49976968344757
H        -6.16397878798387   -1.40441469248904   -3.55620645867285
H        -4.93237754101496   -3.01704247641662   -4.81099183581113
H        -3.84443529801260   -1.68966447946518   -4.38535975073422

