127
CSD_code = SIGFAR | q = 1 | S = 0 | Stoichiometry = C69H52IrN2OP2(1+) | MND = 6
Ir       10.80069618091246    7.55221145271649   28.85407919517830
P         8.55894099144215    6.40399380959335   28.50517606271709
P        11.67513378793273    6.89524537401330   31.23303533203814
O         9.12892229827771    5.54218381212455   31.23600535307490
N         9.57823219243194    9.26364794266293   29.13850099780531
N        12.17292194209393    6.06479092920079   28.30063639441857
C         7.32750998058072    5.93297068995775   29.77917868632936
C         5.95978775159486    5.91494283864100   29.52252828108711
H         5.59229989970253    6.21849186818624   28.55385877987366
C         5.07631206565229    5.51368512907525   30.50463939441087
H         4.01603921213955    5.51536879940813   30.30486288646505
C         5.54104592681228    5.08465228525372   31.73728046808336
H         4.82881886616042    4.75953239568517   32.47688140306223
C         6.89921760370784    5.05104910080293   32.01380643730215
C         7.77482142213730    5.49625651338512   31.02465732059843
C         7.49618862299949    4.46994178763733   33.28250846432728
C         6.50284949236381    4.44814106994286   34.44282437319627
H         6.95807820779598    4.00002570672563   35.32129054487211
H         5.63907541231405    3.84018616028310   34.18975268404110
H         6.16904864386601    5.45358512112456   34.68956084325754
C         7.92994957402473    3.02256408877324   32.96711855816287
H         8.63783786090146    2.99895223256138   32.14026801889069
H         7.06291833452057    2.42474442127563   32.69513784655892
H         8.40357426371014    2.57750401166869   33.83933257323797
C         8.74954538932019    5.26150830763349   33.60420136158704
C         9.21113038805230    5.51444010047421   34.88808744992338
H         8.63800455373282    5.19592784901647   35.74262215850671
C        10.41337514274425    6.16924275734477   35.09439768027877
H        10.75606922545403    6.34944514607462   36.10142828846165
C        11.18239018855118    6.58745462662491   34.02468240178072
H        12.11787730206894    7.09542229197497   34.19828626557512
C        10.74118353605564    6.36795723867528   32.72735240448170
C         9.52896815902142    5.70378635628560   32.53966215434419
C         8.51616215067740    4.88676420656047   27.47422555014113
C         7.70072794255786    3.79359544544967   27.74224501924071
H         7.01425659138225    3.80934620969320   28.57545995428232
C         7.76367193753893    2.66574050566782   26.94175032053496
H         7.12360920224371    1.82365394045178   27.15929814349414
C         8.63815179436108    2.61113306451214   25.87071534877196
H         8.68444168383605    1.72775683905686   25.25256400161710
C         9.45501319210051    3.69585334870105   25.59789421718020
H        10.14174507116593    3.66257195774191   24.76504690584040
C         9.39751391513024    4.82052723158964   26.39764345322158
H        10.04535664994808    5.65964047714473   26.19664120411698
C         7.52391705007409    7.54104533068804   27.50484384566023
C         7.53700837188022    7.51792266363634   26.11584910286577
H         8.08658764300299    6.75212670267680   25.59022294565657
C         6.83857070350474    8.46979973824650   25.39402255326833
H         6.85407985712572    8.43701991174498   24.31516963156891
C         6.12616487405837    9.45958814298204   26.04819054763707
H         5.58481174547610   10.20274761899684   25.48300111295077
C         6.10303770357541    9.48715919528741   27.43323983437539
H         5.54235211421963   10.25050780587758   27.95254044554808
C         6.79837480993816    8.53754914719678   28.15629525641323
H         6.76870656393270    8.56142946501670   29.23807979031319
C        12.86357149242724    5.50491013672100   31.14547652312188
C        12.49701680010099    4.21701935581035   31.52077230653544
H        11.53112639342676    4.03770532185116   31.97024854881019
C        13.36680680747282    3.15779919359073   31.33098903237965
H        13.07198114436301    2.16321045313050   31.63007461982854
C        14.60779810378912    3.36973529498076   30.75686434994546
H        15.28328178765315    2.54186003762315   30.60537219755540
C        14.98349903423884    4.65066514252285   30.38492268502904
H        15.95477009128619    4.82418578380122   29.94574785981345
C        14.11827478477950    5.71118285604171   30.57403235470077
H        14.41543600766876    6.70941079016722   30.28349037483736
C        12.68883261895006    8.21126804180063   32.00799423563156
C        13.90877439765336    7.98260228660539   32.63740025046821
H        14.32312314933124    6.98601852827028   32.68605741691191
C        14.59915387152775    9.03107028516532   33.21937591373911
H        15.54655420007115    8.84128374380032   33.70189040883493
C        14.07931889073096   10.31414441489487   33.19350806250115
H        14.62426515770357   11.12803846556118   33.64656671180299
C        12.85330340000499   10.54446796097363   32.59312293122259
H        12.43270493448606   11.53902432321452   32.58238215119685
C        12.16515169352407    9.49966454907064   32.00560956549565
H        11.20509244705416    9.67937855213234   31.54675412210511
C        10.69013781249926    8.25710092739002   26.94303850828986
C        11.23914659199173    7.70912871159535   25.78957198321693
H        11.82035504487788    6.79828785746198   25.82489177083685
C        11.07561105844787    8.31401871182602   24.55448150941335
H        11.50466226969460    7.85608795957235   23.67537299473571
C        10.36887289865191    9.50057585337618   24.44373475812528
H        10.23557759145514    9.96560473535319   23.47930664825866
C         9.85195519376438   10.09099512467564   25.57575112191568
H         9.30940810304273   11.01824806771403   25.48110829931469
C        10.01655169195570    9.48564325871030   26.82408619785214
C         9.48781485675041   10.04197996380734   28.05376755047157
C         8.91401049172832   11.33166421714462   28.11145659966570
H         8.91202750708756   11.94461098705824   27.22678269342931
C         8.39841212346618   11.80782226349606   29.27739846918471
H         7.98714260174027   12.80349497040446   29.34710936717225
C         8.37763021691607   10.96437537154867   30.40747065162379
C         8.96782200345899    9.67766223604169   30.28579229206848
C         7.78203088927411   11.34455037636747   31.62497617290008
H         7.35432037010315   12.33318718433459   31.69840588168341
C         7.72996531867609   10.47897968431150   32.68364489477027
H         7.26757633862528   10.77603057694437   33.61173298053738
C         8.26840256226020    9.19220241837298   32.55429268405791
H         8.20821762711262    8.49818466919686   33.37962181032371
C         8.87280191028605    8.81009991113071   31.38794058300960
H         9.27885873368170    7.82308536505925   31.27328078455684
C        12.48897942534134    8.66730816904613   28.69477329063446
C        12.66962436650432   10.00823126624284   29.00427758264113
H        11.85905926589042   10.59758937560689   29.40702063414236
C        13.89122659679671   10.62960473291734   28.80630985884117
H        14.01030119386987   11.67048821050131   29.06769491913317
C        14.95828539348759    9.92444659869336   28.27213127937131
H        15.90952438862886   10.41148895126335   28.12255381476398
C        14.79748094241712    8.60036390457509   27.92406841322619
H        15.63418407680568    8.05987177013709   27.50887975400201
C        13.56854912237987    7.96794656539103   28.12614089257753
C        13.32820150069021    6.56349450221479   27.84094025699133
C        14.25182275113580    5.76298069748695   27.13538825286359
H        15.13775769188772    6.21877501451299   26.72672691535860
C        14.00050972552901    4.43918373987491   26.93917239773950
H        14.67014709840549    3.81921648719985   26.36230890223371
C        12.86256169767738    3.86261211239039   27.53983111611970
C        11.97456235748983    4.71676964364769   28.24820858140759
C        12.60656032518014    2.48039037990134   27.48145972385630
H        13.28386569926893    1.85697404864643   26.91731950231348
C        11.54271269981589    1.93702705163744   28.14628337678493
H        11.35484963254031    0.87557994719139   28.10635301498021
C        10.70840688761945    2.76396549599381   28.90672705965610
H         9.89514296107024    2.32673452578190   29.46588913474008
C        10.91286764808975    4.11621743377026   28.94902395660466
H        10.28314154886430    4.73824129130286   29.56196728978285

