90
CSD_code = SIGFUL | q = 1 | S = 0 | Stoichiometry = C39H44N5PRh(1+) | MND = 6
Rh       -0.66378066751932    0.07204187924069   10.97025765499609
P        -2.05260383500436    0.70521111432000   12.63670509945220
N        -0.26895959877805   -1.43739598395253   12.28948446360855
N        -1.22630231622833    2.57512164102379    9.27296723964292
N        -2.70411623662701   -2.06835347857922    9.81472809638953
N         0.84582390950228   -0.71973139026149    9.78027631583056
N         1.29661006492500   -1.96862631968016    9.93896478107579
C        -0.10660813819808   -2.71348402363932   11.81911347884174
C         0.60793362695049   -2.98373483614385   10.63187073604324
C         0.67809514352006   -4.27637562880014   10.11763639841336
H         1.19806430816866   -4.43898132608719    9.18473921351950
C         0.09333765563511   -5.34946153563930   10.76416208106155
C        -0.59234630289922   -5.09529829040466   11.95348417787515
H        -1.06452368093717   -5.91444469675795   12.47587413373046
C        -0.70059079747706   -3.82167980228889   12.45529419909730
H        -1.27210740245898   -3.64906509266043   13.35511249610476
C         0.18583056176387   -6.73867265019213   10.21622216324829
H        -0.78457793861769   -7.23062680458726   10.24675828821770
H         0.87466163742622   -7.33200958998660   10.81701607623552
H         0.54594721063093   -6.73315284811397    9.19078068067039
C         1.72883316404368   -0.07801838410685    9.01986486714703
H         1.58731458735849    0.95113106544698    8.75075822382744
C         2.77232541867812   -0.93102552230571    8.67878138296122
H         3.63073431768473   -0.70767736228949    8.08115540021946
C         2.46235931532549   -2.12868206970884    9.28524818393995
H         3.00883490178992   -3.04856033708198    9.31408803270703
C        -0.47354008860908   -1.21692407277312   13.63284039474269
C        -1.29168361378466   -0.13998159376921   14.03295802631756
C        -1.45862358405438    0.19409930096992   15.36945044912552
H        -2.07540994141726    1.04006685393571   15.63904803709871
C        -0.82515539485069   -0.55469996915603   16.34267318353623
H        -0.94519151396345   -0.30410923051009   17.38459872684032
C        -0.01799980941326   -1.62267416960426   15.96809647540245
H         0.49310153441525   -2.19530784604764   16.72729920352377
C         0.16156981777983   -1.95417829063180   14.64181795260996
H         0.82084738005645   -2.76591493721980   14.37069642343996
C        -3.72578064322483   -0.00080240917223   12.49193858785407
C        -4.56905083815092    0.53213600425037   11.51934627508694
H        -4.21286725107605    1.34974798953802   10.90458795763410
C        -5.84350805134217    0.02543461621577   11.35383079685706
H        -6.50119692900897    0.44593636696033   10.60744387708221
C        -6.28125148629586   -1.02086664325969   12.15361576172808
H        -7.27839207555549   -1.41466908660294   12.02747633913914
C        -5.44074668299705   -1.56042996798407   13.11353774109463
H        -5.78376459430903   -2.37299569220432   13.73667071940980
C        -4.16173881525586   -1.05550927743557   13.28342883410696
H        -3.50495564018936   -1.47057434443242   14.03538992864244
C        -2.42436701840184    2.40779559386838   13.14193936064397
C        -1.63963605415271    3.47113916076706   12.70991858606793
H        -0.80726170609467    3.28113762873517   12.04830672521141
C        -1.92665229909276    4.75811978298150   13.13011738339634
H        -1.31568316881794    5.58414321213733   12.79675188785833
C        -2.99358998895414    4.98947345945705   13.98315227536802
H        -3.21397916574354    5.99344435693287   14.31158605914199
C        -3.77917476683915    3.93198338182542   14.41387156176697
H        -4.61118683190169    4.11185178024240   15.07762979061335
C        -3.50142169166929    2.64416841377294   13.99398440435305
H        -4.12266798868977    1.82076070685725   14.31906159596853
C        -0.99497491888180    1.59151378675128    9.84542071165238
C        -1.53811476292877    3.79672536598643    8.63948204238115
C        -1.56501065703978    3.55585424698086    7.12856635674750
H        -0.59266893870470    3.21956996474451    6.77593356377894
H        -1.81829871747689    4.47974689225999    6.61689413744925
H        -2.30680227045833    2.80231874109794    6.87358458303085
C        -2.90954818990812    4.24482263807750    9.15299944223055
H        -3.67397594701416    3.51949814103592    8.88292729689654
H        -3.16882380603671    5.20200961655401    8.71002383255183
H        -2.89664472741842    4.35217014937191   10.23618747548568
C        -0.45452056958256    4.81042488115521    9.01511353165862
H        -0.43273972625517    4.96608614057352   10.09101041735192
H        -0.66211379651386    5.76020038932225    8.53092173058648
H         0.52461899717098    4.46412990759496    8.69196775448490
C        -2.03858739525634   -1.17293605112970   10.12520403700846
C        -3.52523750712343   -3.14067627603617    9.41317652705692
C        -3.92701481687486   -3.91695314832614   10.66821110801048
H        -3.04369610673387   -4.29472809040719   11.17860039520430
H        -4.55702689932956   -4.75617621524356   10.38783996671836
H        -4.47943264076166   -3.27589866412749   11.35180371883661
C        -4.75226859973171   -2.55184232285268    8.71317427428503
H        -5.29724552963659   -1.89741682114812    9.39028860365181
H        -5.41070070709363   -3.35608738101042    8.39813007984990
H        -4.45664989660030   -1.98081686031955    7.83592056595662
C        -2.70939745108500   -4.01967636955973    8.46220006742777
H        -2.39245394125972   -3.45127861341417    7.59054183895483
H        -3.31824087155654   -4.85508050918075    8.12902419046159
H        -1.82773093706080   -4.40827589377063    8.96743929563647
C         0.87434079384847    1.13345698486113   11.93099147980487
H         1.27523239062866    1.95664932914970   11.33195663720214
H         1.70525748299457    0.44582570984020   12.11838721740431
H         0.60044065652981    1.54869152564955   12.90526793371255

