90
CSD_code = SIGGAS | q = 1 | S = 0 | Stoichiometry = C39H44N5PRh(1+) | MND = 6
Rh        3.89695610641294   11.95414562610328    4.18596666780496
P         2.43063873079540   10.80190979565859    2.90216236969786
N         3.98089259506903   10.18436991927086    5.21073152125575
N         3.95530221247396   14.36347371445824    2.28073154344090
N         1.68049196212044   12.46864744281811    6.38410635637278
N         5.42821184174986   12.62556169425340    5.43071683726120
N         5.76882715792847   11.99679499590609    6.56040903970987
C         4.08580978625444   10.19928126321788    6.57871571329333
C         4.92764532921648   11.10724628430008    7.25679935660006
C         4.96518009181430   11.14551875893626    8.64834084215152
H         5.59200544429589   11.87813469881661    9.13476168014508
C         4.21401358277896   10.28074197628914    9.42359334569658
C         3.38124341406569    9.37773983585438    8.76234748358201
H         2.76722902702919    8.70195360422048    9.33935383914409
C         3.30935490872331    9.34884992536898    7.39079610987770
H         2.63188097417169    8.65939822266402    6.90876810031825
C         4.26078623395535   10.34090007059744   10.91827526451574
H         3.52027873355863   11.04871532817663   11.29369078202454
H         5.23898999786524   10.66580697150498   11.26393764179456
H         4.04116947113229    9.36703790244011   11.34827158981956
C         6.42402521221636   13.45628782762594    5.13018515285576
H         6.38393302675687   14.07966064548057    4.25730393044897
C         7.42997247823190   13.35945796368303    6.08456987163747
H         8.35498219688753   13.89552011033370    6.11558992957006
C         6.97646717990152   12.41634434433178    6.98089218325531
H         7.45050085528122   12.01052024910002    7.85038345535935
C         3.57947370843430    9.02993881933574    4.57707044629834
C         2.81112959046604    9.11761835748725    3.39892590692194
C         2.42272204754173    7.98265234584867    2.69449108119754
H         1.83897807022570    8.09006976101533    1.78982001691013
C         2.79736139055266    6.73386511812219    3.14687697865792
H         2.50195483551922    5.84778665847199    2.60790948632996
C         3.58170247233772    6.62988600041570    4.29134635143846
H         3.90429105829072    5.65644454078350    4.62863337881108
C         3.97001211796478    7.74791495326475    4.99609734017027
H         4.60374882382926    7.64538723243610    5.86485845268208
C         2.45853840092493   10.82597985173401    1.08619917912798
C         1.58907180358869   11.63777531137676    0.36356451232061
H         0.84989570440616   12.23384331552045    0.87938433086019
C         1.65666141733327   11.66828080811797   -1.01794979957840
H         0.97478542885068   12.29374728603280   -1.57430435416477
C         2.59244922446558   10.89648494684143   -1.68729671634617
H         2.64086492062741   10.92113664173772   -2.76505920121097
C         3.46072365600438   10.08711743374090   -0.97171500084436
H         4.18651312610361    9.48008686877735   -1.49136558088365
C         3.39865208766839   10.05133021674073    0.40896369514587
H         4.06917955685683    9.41316897644060    0.96585327066542
C         0.67178652770546   11.09209377006421    3.28345183925550
C         0.20888854663091   12.40585203336132    3.32658423903604
H         0.90539743191884   13.22077255674468    3.16584931137804
C        -1.12521580257261   12.66461087772063    3.58195474857600
H        -1.48528217241866   13.68324583982696    3.59647162036261
C        -2.00181864751353   11.61525655413446    3.81530631134425
H        -3.04239301184856   11.81735579562217    4.01830586352348
C        -1.54044573223008   10.30929656774879    3.79416616812982
H        -2.22117379132977    9.49331783060361    3.98432909575576
C        -0.20784528494383   10.04408619262699    3.52523498492411
H         0.15078877954858    9.02496790419654    3.50806454580341
C         3.90666746832002   13.52222937053665    3.07926358692709
C         4.06514788241395   15.34425619089963    1.27280448045256
C         3.48022876913648   16.65194219714152    1.81058323007450
H         2.43127945303499   16.52591297572820    2.06908509694779
H         3.55996516643182   17.42499408182828    1.05194115953531
H         4.01994864388874   16.97821350851749    2.69676535476359
C         5.55098295019616   15.50108773474800    0.93877277288268
H         6.10542801520255   15.84950063153776    1.80732438801200
H         5.67015392603897   16.22679456754763    0.13958180202167
H         5.97066366060471   14.55178150254069    0.61355418538392
C         3.27994797879261   14.84633922406979    0.05666759268706
H         3.66852551672740   13.88922639883254   -0.28480190680748
H         3.36494668462430   15.56718686353041   -0.75121988878384
H         2.22821746349431   14.72239404767090    0.30383990832354
C         2.47530977595001   12.47725237529976    5.54139846701569
C         0.70516527260166   12.45124826995016    7.40066374403647
C        -0.31785068949519   13.54712165285799    7.09408007025487
H         0.16347402401330   14.52174478370342    7.05482759982509
H        -1.07388378716993   13.56481463444432    7.87372776655634
H        -0.80358555028091   13.35573332869725    6.13982810178216
C         1.41441460580405   12.71277902830426    8.73126992770214
H         2.16722249375863   11.94982540651457    8.91610946672988
H         0.68856844046317   12.69313314553946    9.53904937918662
H         1.89843688510727   13.68693562491310    8.72205812614722
C         0.05059356726299   11.06823906581645    7.38597055436897
H        -0.39975588235871   10.86931700413425    6.41535881241151
H        -0.72356256967415   11.02502783376475    8.14665393778995
H         0.79055456770861   10.29890669067662    7.59395038648354
C         5.39787666989892   11.23394357022846    2.90509222894691
H         5.50206408859288   10.14890210662910    2.98724144989857
H         6.37085949163236   11.66181438202261    3.16468558758441
H         5.22921018152983   11.46051126318331    1.84844952067025

