71
CSD_code = SIGHOG | q = 0 | S = 0 | Stoichiometry = C24H44P2Pd | MND = 4
Pd       -0.00051160099953   -0.00044529144447    8.44358923323069
P        -0.14808505355996    2.19633318636709    8.16492268368823
C         0.00007075755554    0.00013524393353    6.38126099662395
C        -0.24987559530685    1.16846169412583    5.64633821635044
C        -0.24409599448174    1.16839428867810    4.25779530666304
H        -0.43742791368015    2.08749129633589    3.71828217812706
C         2.09262221357382    2.65959332899799    9.73939576901597
H         3.16410426334285    2.85382035504334    9.78213660303966
H         1.91860768632391    1.60319966550242    9.97143176339629
H         1.60988548208892    3.26552538408246   10.50071069052023
C        -2.69150773844764    2.10789124564533    8.94868306979175
H        -2.35728094246863    1.10946308843421    9.27111180801949
H        -3.05050241701602    2.03702740459177    7.92180169834387
H        -3.52679662038174    2.41227491305892    9.57799709195571
C        -0.00000154547215   -0.00001476656510    3.56041663451161
H         0.00001003070742   -0.00005484186494    2.47955292394734
C        -0.57764089540854    2.44358043049641    6.38482471837816
H        -1.65650663134251    2.62096966792336    6.31048252185214
H        -0.07247316635684    3.31311464138308    5.95210630841527
C         1.63850637170692    4.46089614562742    8.04868815638294
H         2.68242481502305    4.77213313671247    8.01241667506742
H         1.14627257378172    5.03511850452358    8.83092323034227
H         1.18130122170013    4.71109754016539    7.09324416765813
C        -1.90890786351670    4.45904173804716    8.49089274374191
H        -2.75621289761669    4.86106682927200    9.04645912367475
H        -2.20030684918637    4.38881047358129    7.44565916701569
H        -1.08853198456292    5.16750921261651    8.57102043304022
C        -1.52666812356296    3.10010687984260    9.07166543178562
C         1.56012601637198    2.96635731134688    8.33869208726897
C        -1.16366049837069    3.24525724541661   10.54765778464584
H        -0.43014336225527    4.03453392829842   10.69649428715891
H        -0.76042970182074    2.30501820959009   10.92496671406965
H        -2.05023768739536    3.49789461627111   11.12856661116388
C         2.40889039584495    2.16403499083978    7.34427855510316
H         2.12977951592154    2.36660893953096    6.31175434686226
H         2.27541518014077    1.08724901626598    7.53756914055670
H         3.46452499180319    2.40652876779861    7.46555335914665
H         0.00028024085959   -0.00012863103547   10.01476189909099
P         0.14802647060488   -2.19575138709567    8.16526747138925
C         0.24986147715408   -1.16830262072848    5.64647088093549
C         0.24405160635651   -1.16837303639426    4.25791121533774
H         0.43741165872929   -2.08750950345869    3.71846484420946
C        -2.09252030940559   -2.65968709139475    9.73934984858245
H        -3.16399566932488   -2.85395653822659    9.78201303035609
H        -1.91859099096506   -1.60328255132293    9.97139565938165
H        -1.60980333434669   -3.26559388164148   10.50070224708287
C         2.69142603880251   -2.10784503054613    8.94865424362755
H         2.35713092414885   -1.10943284637756    9.27104996042336
H         3.05047180238781   -2.03696613271617    7.92179044334630
H         3.52668534446258   -2.41220357033270    9.57802248637695
C         0.57750136241935   -2.44339240250021    6.38514071856519
H         1.65636157357990   -2.62084827234056    6.31076332276613
H         0.07235146451565   -3.31296745359739    5.95241651700352
C        -1.63848368030316   -4.46098724891088    8.04865145328969
H        -2.68239413442228   -4.77228457829789    8.01237803116285
H        -1.14623111870366   -5.03519194491347    8.83089087872255
H        -1.18125777975944   -4.71116537199185    7.09320865054722
C         1.90899268081274   -4.45902736677316    8.49089648657422
H         2.75630561154920   -4.86109117136854    9.04644126398346
H         2.20037513051327   -4.38877312831819    7.44565817209970
H         1.08861267630970   -5.16749173328066    8.57101259838718
C         1.52659600278358   -3.10006859692526    9.07158975361054
C        -1.55999302350664   -2.96642248990454    8.33865606341726
C         1.16362621347133   -3.24521922466941   10.54758895002028
H         0.43010122142492   -4.03448537819302   10.69646296463328
H         0.76044851365128   -2.30496987114267   10.92493071810643
H         2.05023107968881   -3.49786978434517   11.12844922530111
C        -2.40881258467158   -2.16411268330631    7.34427360854634
H        -2.12973269463970   -2.36667233967835    6.31173337852823
H        -2.27532815893055   -1.08733141040939    7.53757847851559
H        -3.46444204792250   -2.40661914833582    7.46558230552079

