34
CSD_code = SIGHAS | q = 0 | S = 0 | Stoichiometry = C13H13ClN2O3PtS | MND = 5
Pt        7.95688832145268    4.66536919006530    8.32567246253567
Cl        7.19895869521405    5.22314386517132   10.40265815155765
O         5.45506372617997    3.89802457177041    8.32807793779778
O         4.45061282355389    3.17253044508998    6.22132356266964
O         6.18714012210916    4.89197282496240    6.23092615159249
S         5.57097283093074    3.76179173423795    6.89539178100685
C         6.91407707277954    2.32616802726071    6.69086512808795
H         6.38618005490931    1.57362291046720    6.11304055851688
C         7.81492665676522    6.72458961126030    7.70421229656273
H         6.93841331227137    7.13829661525926    8.19152991439414
H         7.81685896182250    6.79562943201978    6.62283668007122
C         8.99102777154928    6.56025312194405    8.41913605716903
H         9.03069549434306    6.86450267119319    9.46259010749039
H         9.95322595798149    6.53562477725131    7.91531399990037
N         7.85519959592920    2.69303881359036    8.88638064721825
C         8.09820446297974    2.30911738145636   10.14055104131050
H         8.65882265621321    2.99959024634840   10.75615472104237
C         7.65000622951057    1.10511969198239   10.64525143484995
H         7.86273755143667    0.83631541734111   11.66662044917843
C         6.90283827657691    0.27452944858117    9.81939523859401
H         6.50657616585611   -0.65915889912677   10.18841263421837
C         6.67866559094622    0.66165703633444    8.51474766081065
H         6.10784597709288    0.04284730937418    7.84085973606061
C         7.18051990438595    1.88430969472216    8.05945832171786
N         8.68427138326279    3.96383252607047    6.47721928369548
C         9.60827518910623    4.58523935371714    5.74736776979655
H        10.18618098626804    5.34902076522524    6.24565964083301
C         9.85070394660578    4.29049299992985    4.42238681633525
H        10.60925127585213    4.82804024710909    3.87759887555882
C         9.08311084018654    3.30468027567459    3.81358715922299
H         9.22242881798359    3.05934146458744    2.77204163750626
C         8.14229274489101    2.64369314840588    4.57149664075525
H         7.52743623379256    1.86993583322016    4.14030224454313
C         7.96359036926165    2.98203744750386    5.91823325739956

