107
CSD_code = SIGKIC | q = 0 | S = 0 | Stoichiometry = C45H55Cl2OP3W | MND = 6
W         0.02012147599334    3.90675822586946    4.28056459807194
Cl        1.91745934913659    2.88579952010605    5.38891447923089
Cl        1.48231579366554    5.52674228314262    3.34525828730279
P         0.22915801554011    5.33206492930603    6.27734706197357
P         0.46005679597373    2.36684491926154    2.43736623255656
P        -1.61287092527278    2.59153602397127    5.10225689585534
O        -1.94428462442910    5.61966209156091    2.54836253390734
C        -1.25687067367005    4.96911351189029    3.21642873461733
C        -0.07976279694298    4.38890257440205    7.80229162436372
C        -1.40301665007287    4.09654634793050    8.12976224642901
C        -1.69621414786351    3.32517961598996    9.23675171811374
C        -0.66925909838371    2.82519963039539   10.02275834945518
C         0.64761090227709    3.09671856323097    9.69268635011970
C         0.94570243476718    3.87326107778182    8.58542766656947
C        -1.00614585776597    2.01954980589939    1.42163714975989
C        -1.50597262827637    3.07169759917484    0.65427423072501
C        -2.68036901667725    2.92310136469897   -0.05603607075012
C        -3.37953561990485    1.72706681963483    0.00641313620421
C        -2.89495892249758    0.68296753364156    0.77438625957252
C        -1.71260612585852    0.82462365621015    1.48131885768283
C        -3.05164716528847    2.04889759742917    6.04215784448770
C        -2.91327651047871    0.93961373601582    6.91892060011306
C        -3.86234222479102    0.76859456137259    7.91011213587603
C        -4.97020175783518    1.59455238634960    8.04757052961424
C        -5.16726945629995    2.55623450638697    7.07165029180586
C        -4.25578535550120    2.79228325282918    6.05220467534131
C         1.87631420765227    6.07952237336239    6.55009184754099
C         1.08670358261168    0.71321782333712    2.92539585889504
C        -0.79520206596452    6.82608959546585    6.50581256619701
C        -1.08615123171774    7.56444225914521    5.36382491142141
C        -1.81616152195032    8.73449664940358    5.45677532205539
C        -2.26104827290042    9.17326647140644    6.69354155876055
C        -1.96229731555353    8.44773010176560    7.83510252039898
C        -1.22682532813754    7.27903826754544    7.74618837267652
C         1.76311317533901    2.82194415476620    1.25123860506439
C         1.62111021400027    2.77538046390564   -0.12953921921197
C         2.68410117568424    3.13237364457668   -0.94117521820459
C         3.88651285652651    3.53212002066389   -0.38291516991030
C         4.03540590804824    3.56528017121566    0.99451019284649
C         2.97882515441032    3.21033551367307    1.81067457878513
C        -1.80682440807557   -0.10865907696168    6.77454486820177
C        -1.80197211430431   -0.61806898191137    5.32650780004825
C        -0.43615598535932    0.45505721317421    7.16673238378297
C        -2.04017136815222   -1.34260768630834    7.66107196812621
C        -5.93657026675744    1.36989987049429    9.19995752821134
C        -7.08937452244883    2.37786829611365    9.21226287608644
C        -6.53446763196177   -0.03951544268264    9.08024690548424
C        -5.18050581607880    1.49906026744794   10.52995166876539
C        -4.61688624507213    3.83427823419163    4.99123728228356
C        -4.32118275189108    3.29248470867714    3.58650813025535
C        -6.11468103765965    4.18523418716645    4.99485469419982
C        -3.84859670620777    5.13430112824371    5.25953581789991
H        -2.20179745837315    4.48789517586709    7.51433123002784
H        -2.72495525521182    3.10396620393528    9.47739081462196
H        -0.89656334790277    2.21882898557052   10.88782748554173
H         1.44968387029943    2.69685151539732   10.29607963227108
H         1.97659527213642    4.06045509917726    8.32624146015334
H        -0.95989007608178    4.00636974859252    0.62300606860081
H        -3.05715924748500    3.74089281724014   -0.65215635840204
H        -4.30321241456933    1.61208683276269   -0.54114842917561
H        -3.44067910834111   -0.24796606124305    0.82705782538790
H        -1.34641763310872    0.00256532787800    2.07789422465845
H        -3.74217035745463   -0.03304027069189    8.61615112242423
H        -6.05918550926449    3.15139135649013    7.11227255542838
H         2.64741594790288    5.32054955726619    6.41437534245249
H         1.92924481018034    6.51463060090902    7.54969474497070
H         2.01496884092433    6.85731240877321    5.79752104616985
H         0.42775895939162    0.27100286419554    3.67180673019154
H         2.06755508445826    0.85718499771806    3.38052696825342
H         1.17725107486009    0.06484790560782    2.05275196049147
H        -0.72888328970297    7.21146593399439    4.40380818314158
H        -2.04043249851538    9.30311304373238    4.56650894898051
H        -2.83768057782521   10.08346649640213    6.76915768004613
H        -2.30159301266216    8.79517799157391    8.80043842972949
H        -0.99187817155591    6.71652119643641    8.63924189105029
H         0.68516168924215    2.46139530633653   -0.56999811101776
H         2.57052301589924    3.09957149787400   -2.01521898555360
H         4.70913333165603    3.81758216145202   -1.02217453387102
H         4.97349992023335    3.87443551437375    1.43145412098846
H         3.08959956501532    3.23964234037964    2.88834345018222
H        -1.67367093690432    0.20600187644648    4.62446124809280
H        -2.74748207040833   -1.10856945220304    5.10144852981631
H        -0.99475549406429   -1.33397702240597    5.18257012146933
H        -0.12093299279236    1.26713419463665    6.51280844932634
H         0.31785716794138   -0.32779971550293    7.11259310719086
H        -0.46641030872112    0.83826788819922    8.18412872663223
H        -1.93581941035032   -1.10405018985197    8.71682569508175
H        -1.28805709361235   -2.09189930536784    7.42139903171650
H        -3.01828465532333   -1.78383437991628    7.48223411815580
H        -6.71703452960475    3.39780437418620    9.27743556208205
H        -7.72075606251666    2.19471651715127   10.07947041962031
H        -7.70711684106487    2.27904886639105    8.32276960565820
H        -5.76681794797613   -0.80394383942313    9.16177245722767
H        -7.03131515920375   -0.15589055395290    8.11930701313705
H        -7.26496736458565   -0.20536412522465    9.86928906327913
H        -4.34405015145763    0.80758877031279   10.58190515837958
H        -5.84899053338220    1.28806728850864   11.36213635356667
H        -4.79721960087486    2.51075229429528   10.64863135790713
H        -3.27000891814613    3.03461964335980    3.45629309272688
H        -4.56933884791830    4.04067743328694    2.83780899574245
H        -4.91614426960988    2.40057378222698    3.39971554676875
H        -6.39961886500382    4.75294722030709    5.87717400302557
H        -6.72967921131900    3.29083526669811    4.92637846745466
H        -6.32784438178369    4.80791458255761    4.12874948420890
H        -2.77113471160604    4.96506264795061    5.24968631011120
H        -4.12953065642705    5.54380039903968    6.22888768190134
H        -4.08041647123875    5.87273662822017    4.49590983231549

