108
CSD_code = SIGKOK | q = 0 | S = 0 | Stoichiometry = C45H58N2O2Zr | MND = 7
C         3.10548016559152   -1.68492508369688  -10.83172274492551
C         2.80130801610001   -1.54466189056891  -12.21346584488973
C         3.26871950275304   -2.47969723051776  -13.11481097517690
H         3.04463227666728   -2.35076372414034  -14.15848154254551
C         4.01435980465838   -3.59177184402046  -12.73826010441839
C         4.28238134186078   -3.74964049168504  -11.39316787450080
H         4.84044050474376   -4.61052407563100  -11.07626503564013
C         3.85546451911476   -2.82526869125319  -10.44075990925377
C         1.92873165122309   -0.38412860352628  -12.68142798555725
C         0.54979311860192   -0.54423590966700  -12.02581135205172
H        -0.09361695123952    0.29522776310936  -12.28305195344436
H         0.65121237120591   -0.60336959011604  -10.94486868518578
H         0.07799218926811   -1.46041551625362  -12.37782208950467
C         2.57522577784721    0.95107934710707  -12.28746660698652
H         3.54418378757604    1.04836374648988  -12.77514804999154
H         2.71230506865589    1.01556326907848  -11.20853514508307
H         1.94657348381578    1.77943694939161  -12.60796208178198
C         1.71740777653872   -0.35583365821110  -14.20019115334470
H         2.66065092703023   -0.24135362581280  -14.72959229608183
H         1.08821035626249    0.49588092346103  -14.45177911907581
H         1.21409995812789   -1.25401935792880  -14.55072970714183
C         4.48820131718113   -4.57218263024201  -13.80059651294534
C         3.26828704910287   -5.15892220387583  -14.52461836077331
H         3.58630737292237   -5.87681954354375  -15.27791471238755
H         2.69096018128627   -4.38227030359939  -15.01731861049822
H         2.61892236594627   -5.66664671383961  -13.81471992031810
C         5.38006296409172   -3.82908688736492  -14.80515640421410
H         6.23712649712077   -3.39392305202241  -14.29566109039350
H         4.83673634824433   -3.02881807817927  -15.29883308871756
H         5.74255416644250   -4.51572586320292  -15.56746896366746
C         5.29802680528869   -5.73448155165280  -13.21859492501346
H         5.61424382957892   -6.39419551106556  -14.02418900500297
H         4.70040956008921   -6.31943000360159  -12.52304314365383
H         6.19033102605907   -5.37476800822200  -12.71130039016377
C         3.94326028140477   -2.27347568187769   -8.03769667972521
C         5.01510184334002   -4.22230608363823   -8.74169929752920
H         5.95726539279215   -4.19904613919066   -9.29408282132331
H         4.47525820582636   -5.14364187751848   -8.97761476156738
C         5.23169608076559   -4.05059439702031   -7.24664480867337
H         4.80002767766066   -4.87523734012398   -6.67204364129893
H         6.29012805571883   -3.94612989053096   -6.99599450524374
C         4.05770264911158   -0.96434227863838   -5.36318617089661
C         4.22321507320116   -0.47639301756779   -4.03983558695059
C         4.90359934587898   -1.23413853801831   -3.10298791067844
H         5.02380454750897   -0.83709667732833   -2.11327143875663
C         5.43114423132057   -2.48512105683622   -3.38663830403601
C         5.26193220410013   -2.96863094322143   -4.67268390912650
H         5.65653324109270   -3.94240573008998   -4.90466362413153
C         4.60533011452995   -2.24246051170720   -5.66062082706837
C         3.62566862634607    0.87311095018149   -3.64992460578969
C         3.92347167914639    1.28012169074836   -2.20141943629788
H         3.50345813534240    0.57140673883128   -1.49158555997607
H         3.46845880434900    2.25016372195692   -2.00970187058220
H         4.99287813169479    1.37290663204556   -2.02671875109859
C         4.20177705341771    1.97309228947176   -4.55339987916563
H         3.74073948926768    2.93122030323317   -4.32023864805624
H         4.02853307317475    1.74626115501752   -5.60373049954399
H         5.27445382321736    2.05919195398183   -4.38591459231055
C         2.09987672823665    0.77446984003163   -3.79236320865193
H         1.70728423666292    0.07165575306973   -3.05911924914426
H         1.83215291614360    0.41608704311591   -4.78318143561430
H         1.63564125858262    1.74437528961317   -3.62260311775056
C         6.17692939371887   -3.32814446175576   -2.36235058132057
C         7.60876955660164   -3.57326775653132   -2.85979129914561
H         7.61429620812889   -4.11683383107078   -3.80069809532062
H         8.16748400706064   -4.15401028160457   -2.12870136497163
H         8.11942961208178   -2.62476077194299   -3.01119223253568
C         5.45265951445351   -4.67012557213898   -2.18385886776506
H         4.42752996553171   -4.50180687029432   -1.86130850226155
H         5.95756625092806   -5.27284555677774   -1.43172357186461
H         5.42893043161890   -5.23630311755726   -3.11089041718986
C         6.26106875008888   -2.65146709234274   -0.99155429916825
H         6.79793010970786   -1.70807839798175   -1.05344579011774
H         6.79772973496094   -3.29822564270679   -0.30006790504520
H         5.26944944568068   -2.47271235191396   -0.58301985603432
C         4.52515655941469    1.50833182423069   -8.70417637348017
H         4.32205547264703    2.02287164462389   -9.65103818326225
H         4.70820979602416    2.22106402923871   -7.89153657158617
C         5.52391637110587    0.46114453605346   -8.79921554526638
C         5.79674344098439   -0.20630173820611  -10.01668087703626
H         5.31785537515108    0.13991487972229  -10.92601394934780
C         6.67611711139602   -1.26743486088044  -10.07363817359424
H         6.86015066430121   -1.75397290779890  -11.02235160200039
C         7.33439309967475   -1.70743657469302   -8.93252278487294
H         8.03279028143398   -2.53072657804051   -8.98494088292242
C         7.11000868721701   -1.05076568276208   -7.72904517931979
H         7.63799856973457   -1.36442748849091   -6.83770157254507
C         6.23332173369983    0.01160960728793   -7.65817209337700
H         6.10196586316517    0.53362006730586   -6.71541842854580
C         0.83307213733337    0.19104067735207   -7.80696504405272
H         0.12243223142483   -0.29128191451380   -8.48637919739541
H         0.55808115221381    0.03395849220568   -6.75772739743131
C         1.13271935332650    1.57329374160001   -8.14431283311822
C         1.70937425291285    2.45288067218301   -7.19513741003951
H         1.80120549760593    2.12619050766836   -6.16712918342211
C         2.08088708374436    3.73844590792569   -7.53548079457350
H         2.50692444041428    4.38803469551231   -6.78231098695590
C         1.89554251485792    4.21406908883577   -8.82592566301666
H         2.18963915557560    5.21894210025037   -9.08838654919096
C         1.29731855424671    3.38628286034536   -9.76481228137399
H         1.10899665953626    3.75991522276928  -10.76221638380674
C         0.91540669644407    2.10109364326502   -9.43689691949062
H         0.39956587487809    1.49652080214406  -10.16976295623846
N         4.20041151574390   -3.05331372398501   -9.09430964104843
N         4.52258972986223   -2.80012815103771   -6.95105179371177
O         2.69705588207421   -0.79697739965284   -9.95019414134784
O         3.41927868887622   -0.26272355188173   -6.27730683697152
Zr        3.05652454372815   -0.15276827811410   -8.17043846179771

