113
CSD_code = SIGKEY | q = 0 | S = 0 | Stoichiometry = C52H48ClIrO9P2 | MND = 6
Ir        4.34798163619495    6.49680601972053    5.27012051583221
P         5.26252782828425    6.62818215871219    3.15114512957216
P         4.98913396654702    4.30666771672362    6.03850463710937
Cl        2.20717718476320    5.70552929931743    4.51596075249198
O         3.34699280702749    6.51534215702426    7.17708779987084
O         7.69590722347086    7.92993232198696    7.54058962009900
O         7.84550753299345    6.38890326800410    5.91157710230879
O         5.07422604861698   10.80455293582504    7.32423014294418
O         6.93476282304504   10.39965025376430    6.13546594084792
O         4.39572954113224   10.02193200635485    3.64860722003982
O         2.25591451006154    9.42313915876393    3.98663908917768
O         2.47080239755864   10.98758336454192    6.11332063464470
O         1.86335695219968    7.58420667659349    8.44073054472828
C         5.87510577250981    7.61528011727271    6.03952462448924
C         5.24536255541562    8.79693107700147    6.05206481663335
C         3.85471430913466    8.58867705248618    5.48087094806188
C         2.82926453742781    8.71775923028795    6.58219704510094
C         2.69585247115038    7.54545411578856    7.39638432968988
C         7.20870488301547    7.37091516571345    6.58531921086966
C         9.15956568932810    6.09241985069965    6.34778574164336
C         5.71188495529407   10.09837838350231    6.57652487430234
C         7.50490124935818   11.59281579304201    6.64657071856178
C         3.56358835537378    9.42320431628066    4.30170845222817
C         1.85429005437973   10.27600086700095    2.93346524327447
C         2.24277345867002    9.91024286831301    6.86500689128855
C         1.32380714039035   10.23237624185638    8.01021359132379
C         0.84512937027997   11.64587438593644    7.67119730171332
C         1.96470605145132   12.14566295635599    6.75925163417125
C         1.74056029532308    6.37437184694549    9.17765629599202
C         4.41570663931070    7.63215356096683    1.87814859418587
C         3.06973484408232    7.35105855217078    1.65833714076748
C         2.39606532455415    7.95997548722506    0.61626024662936
C         3.05557903011673    8.85523277387204   -0.21092060632885
C         4.39314018164511    9.13701837402441    0.00851902868507
C         5.07803484075911    8.52326102770507    1.04314982559574
C         6.98331288562883    7.22895898404029    3.10626812838863
C         8.07213314826124    6.40237361296123    2.85161085332846
C         9.35971138386085    6.90501075818137    2.91663970456344
C         9.57602253613225    8.23328834857274    3.24214717002596
C         8.49539300313361    9.06321386804324    3.49058613060489
C         7.20652237198032    8.56704891298444    3.42747332002875
C         5.27587477184177    5.10851122576404    2.12693805724241
C         6.01771880801272    5.06523004759842    0.94914285771986
C         5.99005320244122    3.93449558976106    0.15443632794689
C         5.20352019671459    2.85047254184091    0.51022719983566
C         4.42101276514869    2.91224185782233    1.64995091267140
C         4.45503459254963    4.03825704230696    2.45272589997285
C         3.57973459242198    3.42424348798832    6.79166114333258
C         2.57007257306264    2.94518512953257    5.95781362442931
C         1.45064004940722    2.33673609911897    6.49423771794650
C         1.32008257473683    2.20153477754292    7.86677301470482
C         2.31816877043614    2.67647562883191    8.70054775887651
C         3.44120757713507    3.28657973523435    8.16857496776316
C         5.77869385237060    3.03349038970652    4.99630414158708
C         5.32529543485409    1.73265784580157    4.82791465341134
C         6.00700190052929    0.87052982556289    3.98460272083241
C         7.14176996442855    1.29436554925031    3.31588168634944
C         7.61016849185456    2.58652983243603    3.49984808668205
C         6.92955872015998    3.45157396685631    4.33271326196665
C         6.16263404701844    4.34489136111117    7.44087749851343
C         6.03545522073987    5.35375089826907    8.39220916338917
C         6.88175790918927    5.40708425734106    9.48407540580330
C         7.87023702042791    4.44928438363276    9.64067138096958
C         7.99901931170794    3.43746877554776    8.70408438292792
C         7.15102206563217    3.38166161425531    7.61140177947332
H         9.45787760648620    5.18244304322433    5.83274436495686
H         9.17517786216053    5.94298133701740    7.42957788168980
H         9.83420091634419    6.91264438062197    6.09219646250366
H         8.43580134949434   11.74426527724606    6.10601544368605
H         7.70064371057130   11.48551457024035    7.71569934021839
H         6.82710733277716   12.43540913908561    6.49044550355483
H         0.96978536045621    9.82972784995266    2.48420432726337
H         2.65296379231620   10.37248312718163    2.19590260190399
H         1.61602258013734   11.26415242246492    3.33649584900120
H         0.51455136742047    9.51068850973147    8.09265831199065
H         1.89513806581171   10.20967200891559    8.94043094553177
H         0.71819133650853   12.27585508077082    8.54768523135576
H        -0.09764097664401   11.60570095906922    7.12402032370691
H         1.63583554949439   12.84530522540767    5.98916558398164
H         2.78337630477661   12.59408953636047    7.33461702812962
H         0.94970869285827    6.54699888684085    9.90338256188034
H         2.67774933058028    6.13759275281598    9.68635650167727
H         1.48165325254180    5.54566836442908    8.51480724633197
H         2.55609462153735    6.66313330111380    2.31494749954039
H         1.35280382078617    7.73530267710282    0.44915451992947
H         2.52821974514610    9.33414701704431   -1.02346050650355
H         4.91053290873756    9.83764965895383   -0.63103397543976
H         6.12145176526774    8.74980829476208    1.20088711339964
H         7.91772619930988    5.36637899727931    2.59303572187997
H        10.19922722782490    6.25399071384252    2.71662984310899
H        10.58390447893700    8.61927776277487    3.29968421101225
H         8.65301021420500   10.10087514742657    3.74207481535362
H         6.36677917690265    9.21846640537005    3.61895165043353
H         6.60796944967332    5.92039870470741    0.65110830355538
H         6.57750795458570    3.90177145620922   -0.75177381028095
H         5.18733865781703    1.96834767659243   -0.11284740724763
H         3.78086013325401    2.08316890447587    1.91238810447411
H         3.82373471385974    4.11516730995919    3.32570249458752
H         2.64750681482926    3.07178252267717    4.88925048705343
H         0.67212669113250    1.97762096208962    5.83763824268478
H         0.44194282448686    1.73219313341477    8.28612940540841
H         2.22145492416480    2.57709072723222    9.77257852731281
H         4.20877770061866    3.65769546742418    8.83198456654183
H         4.44619867766098    1.38832021884162    5.35256166652404
H         5.64899129112211   -0.14020176381363    3.85226979024352
H         7.66511729038465    0.61826043127895    2.65617815360180
H         8.50471898695113    2.91234378482239    2.98841188096645
H         7.27048768811155    4.46445733145632    4.49786384033692
H         5.26891775607909    6.10340234239435    8.27108388194555
H         6.77819112353921    6.20413611983893   10.20510912324208
H         8.53818154254654    4.49266626908669   10.48841518949607
H         8.76587385648172    2.68548708232040    8.82283717259169
H         7.26398612727467    2.58493114226236    6.89137995505424

