83
CSD_code = SIGMEC | q = 0 | S = 0 | Stoichiometry = C31H44N4OSi2Ti | MND = 6
Ti        5.52968929574158   12.24025240040367   12.15596250793396
O         6.02649087893624   12.85827904516757    9.80880495497043
N         6.38296493759628   12.83995391169661   13.75667785814568
N         4.71852973294910   10.50260659421665   12.17946633252223
N         7.26747746073420   11.70486995730157   11.66355605438404
N         4.20290375368124   13.51969140787002   11.63434257513538
Si        6.53913368219815   14.44222133639949   14.39293071870158
Si        2.74218440610223   13.57452086062036   12.54268373856300
C         7.41496137338349   11.89878878594701   13.95992638258455
C         7.87160359943335   11.27640890819099   12.81886667135404
C         7.91165334903853   11.66566658566212   15.31032754529105
C         7.04493296263677   11.78179707763077   16.40312379561876
C         7.48586066251142   11.57669977014888   17.69387071651398
C         8.81173891916348   11.25518618280613   17.93819005256034
C         9.69121587298900   11.16528750494892   16.87220455774952
C         9.25272896792272   11.37218822598414   15.57854763374766
C         8.85431889930639   10.13519507663220   12.77026601532968
C         5.32892931976061    9.49490873333605   12.91595224834175
C         5.55575424942080    9.63839124289125   14.28961135207269
C         6.22404789143247    8.66040476715424   15.00110176711497
C         6.66213485491207    7.50730613330481   14.36971089670276
C         6.41373149339215    7.33460081044309   13.01677308477736
C         5.75690253226665    8.31096541656839   12.29554212369922
C         3.71465646217605   10.12121551593907   11.31302685603188
C         2.79578816497343    9.11785672150083   11.66793979226046
C         1.76663959785194    8.76727989109101   10.81946684160957
C         1.61819948005344    9.39451269593317    9.59187963776717
C         2.52660459934195   10.37343038945878    9.21956203136307
C         3.56360947601337   10.73154624091891   10.05898693107719
C         7.39228416934905   12.63913767717032    9.51037672331129
C         7.79430052492744   11.42260996263986   10.35894607552052
C         5.57279469163788   14.19269026544584    9.71573352118951
C         4.18400005502303   14.20714473850358   10.36400723702682
C         8.27288923598761   14.77929242928193   15.14171410133993
C         5.24987475787199   14.89288240732330   15.74382723988996
C         6.34048304651973   15.69806751239349   12.95646485891334
C         2.97741497012256   12.43809718459469   14.05932860298640
C         2.32250496065478   15.36649636340145   13.11382568970263
C         1.18507210544014   12.98226332531807   11.57903513807559
H         6.01048198154376   12.03479320833486   16.22473530614202
H         6.79236298279367   11.66447417345309   18.51875642892267
H         9.15791780210658   11.09079424251844   18.94797882473203
H        10.73370040852527   10.94298832135186   17.05301436199075
H         9.96810808695511   11.34949502487673   14.77226879488728
H         8.89178632256823    9.62888787380471   13.73111071295280
H         9.85928764674344   10.47633263146333   12.51317107257678
H         8.53732721904167    9.41308867692400   12.01711472864689
H         5.17283931365061   10.51822453740208   14.79014198294094
H         6.39694723087428    8.79625688485443   16.05913467972829
H         7.18288001996451    6.74421559061038   14.92835114520945
H         6.74006972621036    6.43201455338331   12.51932274920610
H         5.56523373979834    8.17665735603472   11.23771928463329
H         2.90263413494012    8.62670473521870   12.62648296654005
H         1.06821848025487    7.99901517704359   11.11968675400337
H         0.80928241840515    9.11935832434997    8.93219369665296
H         2.42950594196621   10.85515702598571    8.25601290010421
H         4.29058819072941   11.47221363865494    9.75054850012251
H         7.99209478515935   13.50957661829601    9.81748756542576
H         7.52678372012524   12.46444163535058    8.43183427348027
H         8.88763539437100   11.30794143844114   10.35098441211684
H         7.34097656661912   10.51324410905420    9.92031279727003
H         6.25714296793707   14.86155678477846   10.25967353808810
H         5.51818971596667   14.50979710952433    8.66143061162641
H         3.86473594798858   15.25636380110045   10.46907256545546
H         3.47643871914556   13.72574912031848    9.66777031620988
H         8.44961332539147   15.84472757199307   15.24950328584483
H         8.37926890838875   14.32741426697863   16.12157781743105
H         9.05866977884341   14.37384855342340   14.51149479901754
H         5.28126592869309   15.95978936973567   15.94197359702815
H         5.45342964301133   14.38702964293015   16.68253397502567
H         4.23773201789315   14.64496845410284   15.44216067820450
H         6.31100045002370   16.71781077546964   13.32651972659861
H         7.17115509251673   15.62914737965401   12.25667631292604
H         5.41566556719839   15.50697778139956   12.42150208224885
H         2.34327369104494   12.74911927069738   14.88357476274217
H         4.01556653935913   12.46731147560499   14.39134851879287
H         2.71645003262412   11.41048011535693   13.81718163454852
H         1.48849132626046   15.37120935836777   13.80803351972588
H         3.16381124407777   15.84652046998354   13.60418381985688
H         2.03744618592138   15.98650697210013   12.26878876848988
H         0.29414545754291   13.04629922626917   12.19542116832988
H         1.01159012640540   13.59377876442298   10.69845929101870
H         1.28504982696710   11.95220390214185   11.24959441061741

