49
CSD_code = SIGNUT | q = 0 | S = 0 | Stoichiometry = C19H24AuN3O2 | MND = 2
Au       11.72434516945013    4.28879548273525    0.32005769375709
C         9.79391158307096    4.28978436348944    0.85967689324872
C         7.76641383276429    4.96569347090970    1.46290884191110
H         6.96493752129378    5.62885303004342    1.70263436306595
C         9.43669589306920    6.77433882905186    0.95193456450441
C        10.58078434266541    7.06327486091119    1.92653907717662
H        10.29541521811102    6.79074989023821    2.94087618579050
H        10.82061263555570    8.12224157750913    1.90370008141037
H        11.47371832315335    6.50883240856612    1.65030766909745
C         9.87129168991058    7.03325598721551   -0.49262250576256
H        10.77165789365396    6.47332650882504   -0.73107455051136
H        10.08460194033994    8.08963488171339   -0.62620599319573
H         9.08254866699353    6.74503535086226   -1.18504029020588
C         8.26657622981894    7.70526941134591    1.28363679297693
H         7.43030467103524    7.55055715011803    0.60512719219838
H         8.59932669549586    8.73365801627150    1.17110445287444
H         7.93322102290034    7.57450723017176    2.31108969388519
C        14.39859868275816    5.41971105433707   -0.40834244915017
C        15.77673685497303    4.98761722598182   -0.78534011634328
C        16.91271354047305    5.70208092065681   -1.09783563654952
H        16.90632214922576    6.78142037103862   -1.09591949890043
C        18.06081864374494    4.98286744876734   -1.41449175474104
H        18.96840345008926    5.51314292368242   -1.66490500377702
N         9.01784381869998    5.37096707172276    1.08940247836001
N        13.66003073021768    4.28974722238164   -0.20680621521047
O        13.97159252998122    6.55153652518830   -0.28925771663660
C         7.76641655607470    3.61397678328777    1.46296153351461
H         6.96494615209111    2.95082773167742    1.70272717331770
C         9.43675908251883    1.80533863970423    0.95198921143067
C        10.58094330925234    1.51650805383906    1.92651972000980
H        10.29561046942463    1.78899334668177    2.94087955077443
H        10.82083701546578    0.45755254392653    1.90366199954558
H        11.47382448652787    2.07101015884688    1.65023852040597
C         9.87139821395432    1.54647404489282   -0.49256182188372
H        10.77175396358889    2.10641119141983   -0.73100693947878
H        10.08472537190778    0.49010144063704   -0.62615697559041
H         9.08265461613577    1.83467971129759   -1.18498111990818
C         8.26669435564854    0.87432520974501    1.28370608889917
H         7.43039644177385    1.02900089870249    0.60521148157703
H         8.59949235788024   -0.15404998902783    1.17116090390776
H         7.93334464789285    1.00506142772691    2.31116511002957
N         9.01781865591216    3.20867440194682    1.08946594816636
C        14.39857183342018    3.15983125497125   -0.40857610942030
C        15.77670337119119    3.59195378551447   -0.78547816958466
C        16.91262211860272    2.87746878884508   -1.09811049973016
H        16.90614406698260    1.79812926510871   -1.09640620035623
C        18.06077452327042    3.59665996993736   -1.41462284754049
H        18.96831585186102    3.06636357196373   -1.66514787929021
O        13.97152880917592    2.02800855462193   -0.28969292806928

