86
CSD_code = SIGPUV | q = 0 | S = 0 | Stoichiometry = C32H44N6OSi2Ti | MND = 6
Ti       -1.97323319205686   11.72414463199983   12.87022861345897
N        -3.36896598107105   12.42857520928668   13.67134962270375
N        -4.27314367803280   12.50208104969395   14.61361548594205
N        -0.59511506292035   13.13066782398190   12.76570656104312
N        -2.49388633004645   11.53838969053525   10.99029243232647
N        -1.55321513978229   11.53611209418278   14.88265620776223
N        -2.56939008380691    9.70927897862684   13.30558088109728
Si       -0.67103832571805   14.69247479106139   12.08249927040355
Si       -3.88868133729098   11.88412874337410   10.05906626256431
O        -0.11903988460673   10.52059432881318   12.22408694750206
C        -4.95471595852280   11.32065916142360   14.96784163406794
C        -5.32584298879335   10.42796882860755   13.95857103445991
C        -5.92232066096780    9.22650352213055   14.28597277450687
C        -6.14804722004332    8.89146776490596   15.61205634822779
C        -5.77395479365604    9.77309132013532   16.61486272691661
C        -5.18284349940958   10.98141300596692   16.30390032625809
C        -4.52839607847171   13.71827777217124   15.25687087900352
C        -5.70078951909378   13.94202172804400   15.98440677793475
C        -5.92574318923153   15.17322155256787   16.56884968904323
C        -5.00941968048073   16.20331719128472   16.42912934052325
C        -3.86719992191520   15.99796949801662   15.66839794543827
C        -3.62753303027065   14.77451837624161   15.08120423065117
C         0.69538130289686   12.59377540912014   13.11114507880191
C         1.01134027432796   11.38717067273248   12.21924427458241
C        -1.33210463313486   11.16673546278670   10.21414261778574
C        -0.49277688693217   10.09586380127155   10.92329069995198
C         0.04547686384963   16.02419806631400   13.28310689167225
C        -2.49155308028107   15.09767355739775   11.70156291858767
C         0.37310337036663   14.89750394778996   10.47022245639108
C        -3.48239738738338   12.94920451131675    8.50680478197750
C        -5.26747241948751   12.76937172480110   11.03963907247282
C        -4.67359678586420   10.27110673161198    9.32181504422858
C        -1.24677420878531   12.56796564055518   15.68956917347856
C        -1.34417994283425   12.53000976668382   17.05631037825148
C        -1.78632547334598   11.34858724823150   17.67780820401392
C        -2.09312117671092   10.27731611116111   16.88196330889029
C        -1.96216534846590   10.37653362693591   15.48321863442206
C        -2.35399204415760    9.32419731829602   14.58896296377491
C        -2.58140050562445    7.99064383880250   14.98930978820515
C        -3.05422100424499    7.07888037394111   14.08215167912428
C        -3.32761895831262    7.50608439147449   12.77686019752510
C        -3.06477461470459    8.82075227324879   12.44941946546968
H        -5.14288962031435   10.70699006268344   12.92949509583492
H        -6.21729220610691    8.54503370760973   13.50113876811666
H        -6.61097920258265    7.94926323418852   15.86375461023236
H        -5.93895466386556    9.51250307965618   17.65034678415120
H        -4.87028875553110   11.65318149815129   17.08942241816283
H        -6.44319666794631   13.16366747695759   16.07318287553122
H        -6.83400341431030   15.33309146813899   17.13184369068545
H        -5.19282324644134   17.16066646470344   16.89280138034826
H        -3.16000173078593   16.80297472450518   15.53053615062982
H        -2.75827010585269   14.60165447679536   14.46198577316122
H         0.72277557746596   12.24491509996956   14.15848794181591
H         1.50970590913106   13.32450958657654   12.99315405103308
H         1.88753877105896   10.82907974255862   12.58755351066356
H         1.21744425704032   11.74399636575659   11.20445983344186
H        -0.69243003319227   12.05063046525309   10.03957771101376
H        -1.59565412849535   10.76180376985904    9.22352726964259
H        -1.07695882547292    9.17903721177136   11.05489335154567
H         0.40334963961329    9.84874516027751   10.33308101574883
H         0.01871902572424   17.01255149855766   12.83622959814174
H        -0.51154211998943   16.07224185968386   14.21473472250140
H         1.08106261775216   15.81258004893410   13.53491862628871
H        -2.63125656911219   15.34842949833640   10.65623686192793
H        -2.85378995158172   15.93745341518512   12.28474589939016
H        -3.09733543676889   14.22304573693675   11.92992033605889
H         0.40595931909109   15.93371646737660   10.14866776812557
H         1.40071350115955   14.57461828619444   10.61971418573601
H        -0.03840827522567   14.31619074881944    9.64889494312889
H        -4.38330840945745   13.27418425958129    7.99613507742350
H        -2.91751516817185   13.83639301167982    8.77648253271981
H        -2.88872088901963   12.38969651822769    7.78934783520191
H        -6.18977825365212   12.19844772241461   11.02689250506361
H        -5.48230850579624   13.74178905798668   10.61149708957578
H        -4.97290467819941   12.92196670849874   12.07257348815317
H        -5.38564426965511   10.51165984981272    8.53860102800938
H        -5.20639120785283    9.69293158402537   10.07278130840083
H        -3.92057686619988    9.62205700820959    8.88023366334142
H        -0.91716666098458   13.46798530475677   15.18206019935555
H        -1.08403536844406   13.39529687260465   17.64475946887231
H        -1.88693503312684   11.29565701613136   18.75078523437666
H        -2.46145721869620    9.36224752443665   17.31784104751308
H        -2.36682380493738    7.69002908367773   16.00227527872523
H        -3.22333606788618    6.05139334025278   14.36828016496851
H        -3.73233963864588    6.82682314044332   12.04399103197745
H        -3.28416340868214    9.20181930430011   11.45826425182881

