96
CSD_code = SIGQOQ | q = 0 | S = 0 | Stoichiometry = C40H46N6OSi2Ti | MND = 6
Ti        3.02786831808967   17.43441125433447    2.95661855295121
N         2.04728644480995   17.14265674627214    1.59355180265589
N         1.33473629994123   16.94005553899031    0.48902197375408
N         1.83753216549123   16.76972455483326    4.53353484286850
N         4.80017385490308   18.20891093869628    2.12876328828737
N         2.31229752227723   19.42736304297046    3.43632960251054
N         4.07727963040776   15.55269767727481    2.99336213226795
O         4.15786928421310   17.83133366045670    4.53677773899612
Si        0.49433955394998   15.69921391427865    4.41907965459710
Si        5.00025896284335   18.90451966481340    0.56841969529541
C         0.03793709780086   17.43200751423607    0.37445368854018
C        -0.34012128734945   18.57307623727093    1.09118561320887
C        -1.63426130534382   19.04643594682801    1.02129683488646
C        -2.57946361273681   18.39848683140384    0.24109400769907
C        -2.21210271306152   17.26512290977013   -0.47083088662617
C        -0.92351388549955   16.77880658666184   -0.40732817138415
C         1.90226539742068   16.21280367628847   -0.56417121155983
C         1.72849103768791   16.61030159771428   -1.89351715403257
C         2.33625816953850   15.90331998260234   -2.91052073892353
C         3.12613330972186   14.79738546954326   -2.62870166195302
C         3.29883756407145   14.39826034139388   -1.31234048056354
C         2.69430524048838   15.09604664345705   -0.28521079209126
C         3.50949053892910   17.94731000590520    5.74487011193758
C         2.20385398445638   17.39119533293414    5.68728152646582
C         1.41333252370652   17.56085857341209    6.83285824663520
C         1.89287031045046   18.23434320204785    7.94098710928662
C         3.16514154077927   18.77840238040864    7.95639089067662
C         3.97695496966229   18.64657837234398    6.83623788826503
C         5.51440119955991   17.72426372954467    4.33830818237498
C         5.83460093020423   17.92859622497971    2.96886969594110
C         7.18462976880163   17.79371399872501    2.62433381326336
C         8.13354120444899   17.45449854881930    3.57263927687898
C         7.78154703625400   17.22933333625302    4.89076941705674
C         6.45138140717644   17.35801887823122    5.27731252099989
C        -1.19813057287133   16.57106263187255    4.14183313503961
C         0.33454112703844   14.59027546900530    5.98963980331470
C         0.74975924324994   14.49553796312998    2.95946887498755
C         3.35632152457570   19.77316054679690    0.12494189058648
C         6.37194986083710   20.25822138988582    0.55311895404897
C         5.43167050895207   17.67078850749048   -0.84323656253445
C         3.18112382131661   20.43932888687333    3.50936722161237
C         2.91832005745145   21.61464995031274    4.19126055476642
C         1.69735413647395   21.76297035380176    4.83412031522001
C         0.78485019458446   20.72129450686011    4.74583221082385
C         1.13105046613343   19.57875428122991    4.04523175458403
C         4.96782527815802   15.31003418955355    2.02551645322972
C         5.97808684978461   14.37192214737819    2.14945886512327
C         6.09157568472163   13.65111907625091    3.32959331057254
C         5.15965730840597   13.88992163360614    4.33017877844507
C         4.17683058403428   14.84086675878845    4.11920963305466
H         0.41219483255649   19.08063017275469    1.67839279248535
H        -1.90783290008400   19.93348784940121    1.57520656236258
H        -3.59146999376967   18.76980465636988    0.18840466062793
H        -2.94526139577221   16.74869248762392   -1.07346705249336
H        -0.65515949406707   15.88383191722353   -0.94897843453718
H         1.12641276055682   17.47895558059471   -2.11520483670532
H         2.20384246823336   16.22162231659755   -3.93436418887132
H         3.60118515088604   14.25205385079513   -3.42997399302095
H         3.90236615141719   13.53067632307683   -1.08607217451181
H         2.79296903585524   14.78320078138879    0.74469656685547
H         0.40797768305338   17.17185810244094    6.83129459557657
H         1.25489990220430   18.34648860827521    8.80599970230369
H         3.52532181143122   19.31394650947237    8.82087159131746
H         4.95774741091437   19.10008682532115    6.81282153748227
H         7.47386118905281   17.93504394907584    1.59541679665066
H         9.16632948983515   17.35235981429431    3.27146009735486
H         8.52565263965067   16.94830139434114    5.61969343184238
H         6.15585732719102   17.15607469646370    6.29699721402996
H        -1.21119242911664   17.10255988022402    3.19368299262838
H        -1.43543917847797   17.28194280243825    4.92937685153690
H        -2.00155361656807   15.84169532223725    4.11226621732802
H         0.26302794281160   13.54024864247700    5.72449052992578
H         1.18879784518459   14.70373630478576    6.65120364227890
H        -0.55182028009770   14.83684223131328    6.56505236013205
H         1.73483619772619   14.03642912137682    2.96941199869289
H         0.62573139916959   15.00917950382483    2.01449643962091
H         0.01294079009105   13.69932829194849    2.99629548717970
H         3.36790791861032   20.83171364025785    0.36809640049805
H         3.15102792702390   19.68559929619554   -0.93624867662416
H         2.53822594827419   19.30906827902031    0.66964572461101
H         7.28785427993857   19.89424366207029    0.09971065639395
H         6.62060069637401   20.58888520428864    1.55775730184377
H         6.05894656350346   21.12986954543204   -0.01274955596495
H         6.32105547689914   17.08567343055646   -0.62337813112461
H         5.61844599571794   18.20602126844915   -1.76923635431202
H         4.61465836337058   16.98028584352417   -1.03014829147671
H         4.12220821120271   20.29521394634366    2.98958158937138
H         3.66034983381126   22.39740089388470    4.22238790674478
H         1.46453467493307   22.66171332445564    5.38459299450077
H        -0.18094859338254   20.78862124978072    5.22122717073207
H         0.44188372029065   18.74674896581050    3.96420827687760
H         4.85864874215296   15.89674905963218    1.12193624765197
H         6.67060333605713   14.21750872730584    1.33713087762874
H         6.87877431352317   12.92548418434525    3.46584615892792
H         5.19746297453904   13.35085665466448    5.26403437820676
H         3.42559834036434   15.03670328131692    4.87707173340233

