101
CSD_code = SIGROR | q = 0 | S = 0 | Stoichiometry = C38H58BFeP3 | MND = 6
Fe        8.43712191012120    0.21968027418471   11.71193807445056
P         6.36526368840288   -0.37058540626609   12.19450856331789
P        10.02662547241155    0.67663833699606   10.19269262874000
P         9.65560819661702   -0.62408225309557   13.41928575700487
C         7.56814093811518   -2.77078122910655   12.05712403244018
C         8.94361942347811   -0.38269923078720    9.17477748737857
C         6.41785445474579   -2.15386290031808   12.57880574627424
C         8.29809013953960   -1.45124459914775    9.83606464794337
C        10.13945722856294   -2.39888138847580   11.52476728972371
C         5.36016292281691    0.49906661412786   13.53108098065384
H         5.54259210063462    1.55922134221533   13.31017791224541
C         8.74272597176433   -0.19289850184164    7.80414618607751
H         9.28204689531274    0.57831481091408    7.27793104515027
C         5.48234800764591   -2.88744355209836   13.29665929811738
H         4.60503464657058   -2.41190817380012   13.70739604045896
C         5.66694943453862   -4.24386461508592   13.50318741760043
H         4.94134872893074   -4.80644938099440   14.07384936196569
C         5.23913869687884   -0.42546875899990   10.67313475822033
H         5.91697974974394   -0.83656314412514    9.91786000892181
C        10.78033042593793   -1.84162551808562   12.63611806743476
C        10.18899336520344    2.25765718834011    9.14560512129436
H        10.92281938172510    2.00391749596376    8.37212192621175
C         6.77951008480877   -4.87399059792993   12.97179844726125
H         6.92122236919945   -5.93532017742150   13.12157496632285
C        10.80487250998469   -3.36486165789499   10.77991588552034
H        10.31618595286688   -3.80857877498877    9.92211289434173
C         7.42572787153290   -2.24774033207557    9.07691936185523
H         6.92803214723429   -3.07357611078807    9.56790810625447
C        11.72998185718678   -0.10496644227957    9.81140384811028
H        11.83817383498227   -0.85345733540349   10.60063519051558
C         7.71188463547692   -4.14258076304328   12.25883907439139
H         8.57737417036510   -4.64497897653742   11.84717214511353
B         8.65576466028410   -1.91388486708837   11.29025333297285
C         7.90514931225641   -1.01732848149502    7.08480316337224
H         7.78674309380399   -0.87184771440653    6.02025748832677
C         7.65014207498050    2.13941304153971   11.51465644098136
C         7.23170427954701   -2.04873960450309    7.72774731892566
H         6.57902926177654   -2.70304820795825    7.16700116126438
C         4.80373514354768    0.94943352334465   10.17357305868189
H         4.12237926575334    0.82820803926213    9.33180592486742
H         5.66150526080808    1.51828105188342    9.82733211055325
H         4.28821784302027    1.52372387003475   10.93968714807854
C        12.09020329218208   -3.75300693136976   11.11951293228325
H        12.60982041889296   -4.49165072260144   10.52486268601323
C        12.71114658129448   -3.20092885220501   12.22768514637832
H        13.71119970435634   -3.51201357125683   12.49673050931617
C        12.05542126374629   -2.25358278734823   12.99816059494833
H        12.55503190852792   -1.85282408695001   13.86905077970387
C        11.77178948596410   -0.83805624786953    8.47294857377943
H        11.61686686421001   -0.15774277578563    7.63767231265550
H        11.01973279889137   -1.62077789748313    8.42965473275354
H        12.74929575023618   -1.30331005416100    8.34889648838641
C        10.93764402901757    0.42020789851541   14.33156992354703
H        11.45633613339104   -0.28721113619445   14.99030379789301
C         8.99875099650412   -1.73292102068045   14.84043138873288
H         7.95634460052243   -1.90391874601071   14.54981586145616
C         6.03767482482907    0.19405968110349   14.86181592671744
H         5.69587006892179    0.87775218774509   15.63846111412590
H         7.11355367192932    0.30359541014168   14.73890485429829
H         5.82833202954943   -0.82306972080833   15.18506757889611
C         4.05025883719501   -1.38174870272737   10.75465232337050
H         3.26905865125536   -1.01794512701811   11.41372629743054
H         4.36288662551248   -2.36574651162011   11.09402862031828
H         3.62086137470808   -1.49346084616490    9.75861134223748
C        10.77701316068752    3.37623885188980   10.00870392737387
H        11.01557285751180    4.24019119965782    9.38830161957064
H        11.68603311755679    3.06361339303589   10.51390407329305
H        10.06141212323610    3.69019849446778   10.76497129695772
C         3.84758562281413    0.32350165728448   13.63793436247355
H         3.56126302749119   -0.70897657682787   13.81120545274578
H         3.33593934911942    0.68406712987680   12.75027066524653
H         3.48969968339674    0.91027781979661   14.48534985921689
C         8.91359243852961    2.76935261741310    8.45466183024955
H         8.08353118420587    2.07137444838018    8.54152174108366
H         9.09411035397269    2.94306798259267    7.39445425031399
H         8.60037777365463    3.72011173590333    8.88251154757385
C         8.43272768675052    2.04182656351088   12.65492024365647
C        12.93490753989640    0.82963179299143    9.90439158557519
H        13.84537970201391    0.23479013763332    9.83002430068282
H        12.96809871323894    1.36011329797688   10.85101868036673
H        12.94972594910236    1.55293863826889    9.09220354437325
C         9.00423000462919   -1.14217662785482   16.25024284456038
H         8.57047336609949   -1.87224143508229   16.93372717430433
H         8.41052925233260   -0.23764279914172   16.32968914938243
H        10.01360349500758   -0.93030714166922   16.59221779886874
C        11.93548776741578    0.98508939380915   13.32794010468887
H        11.39970336120147    1.53837547194373   12.55724551415496
H        12.50556825933860    0.19722328310499   12.84516170662283
H        12.63150404606974    1.66062505740073   13.82528565052724
C        10.38368217649246    1.56657605471432   15.18159968186830
H        11.02689930934442    1.73804630899904   16.04403201926241
H         9.38067555110502    1.36966585746017   15.54167801652461
H        10.35104190862513    2.48636129573159   14.60617043598092
C         9.67783760832359   -3.10045942947382   14.90663485356087
H        10.72291258412724   -3.01040199912809   15.19410925733972
H         9.62031761435408   -3.62142613695670   13.95621545009551
H         9.17357962012963   -3.71297577956686   15.65417075224712
H         6.58154205255343    2.23821552593178   11.62410069168003
H         8.03571334815454    2.65405785855741   10.65497137881794
H         9.42138745364198    2.47623003455057   12.64593431887513
H         7.95887361703696    2.04374969079485   13.62543101551370

