69
CSD_code = SIGTOT | q = 1 | S = 0 | Stoichiometry = C22H38MoN3O3P2(1+) | MND = 7
Mo       -0.68662963275157    7.72313089225854   12.13672994959462
H        -1.79590784459165    8.41418093613138   13.08304310009068
P        -1.27772997726375    9.83958678429599   11.20127114264629
P         0.55418863396689    5.68594640096604   12.27701224434939
O         1.35702058861605    9.00348515620515   14.07985982932009
O        -2.89094333797027    6.35675928859462   10.44590284311178
O        -2.24928069640728    6.43084987020093   14.47622696035154
N         0.66607256828362    7.89604857282203   10.40810591367893
N        -0.39649371704339    9.88107703533386    9.75460010789737
N         1.69341346980400    5.88561822798404   11.04007126599389
C         0.58037235177604    8.93699113083446    9.54649067743549
C         1.44773910701952    9.07135080998620    8.45896099452327
H         1.36694788329996    9.90356771607916    7.78570711298760
C         2.42675955065330    8.12261990668315    8.25611796990292
H         3.11137482830161    8.21368060689296    7.42874661756798
C         2.51862100351927    7.05640000104636    9.12353910013982
H         3.27923775740240    6.31463470450980    8.97151382086970
C         1.61648782350490    6.95876525339810   10.18826666461719
C        -0.81853511978369   11.46492688874908   11.98583816328113
H        -1.18261937755373   12.24677752197626   11.30436206235913
C        -1.50717017787996   11.64151313896571   13.33521329783156
H        -1.29467879194466   10.79765438630816   13.99293979782246
H        -2.58453780948290   11.74024153078024   13.22446254049307
H        -1.13865631639417   12.54568668627264   13.81586862758148
C         0.69770711399534   11.60061863091157   12.12579372159538
H         0.97332111233108   12.65260659563307   12.15814390712598
H         1.23055789843581   11.13835891688406   11.29321955764987
H         1.04426137975714   11.14594172044049   13.04881369493250
C        -3.03542183635255   10.15023364334587   10.66836764610638
H        -3.18087408416518   11.23817821760328   10.61798247286416
C        -3.99628117848653    9.59631671253317   11.72073530411089
H        -5.00633922260961    9.94363817677941   11.51187937310285
H        -3.72931645669549    9.92055994024864   12.72554554881599
H        -4.00515425829912    8.50768926887005   11.70296608654921
C        -3.32538472094828    9.52546743707988    9.30245009739743
H        -2.82599267933703    8.56350790524126    9.19585197870773
H        -3.00816656311634   10.16483698399057    8.48365759872663
H        -4.39513808202134    9.35963525325561    9.19644170595630
C         1.61708342134829    5.30105017347428   13.76253436129266
H         1.86674604839456    4.23214371803756   13.72178602247650
C         0.83817892207790    5.53714113310077   15.05542103565844
H         1.44464614100261    5.22811882100391   15.90495881667396
H        -0.08463027658286    4.96123491562375   15.08245482604321
H         0.59432222292696    6.59155284614382   15.18112859812716
C         2.90213443962058    6.13748027343220   13.74035342541159
H         2.77487695721008    7.05172148485395   13.15931905040255
H         3.73488937971464    5.58282146984303   13.31684165753716
H         3.17809428100215    6.42548515630147   14.75176322956247
C        -0.19696604715324    4.03174304282428   11.85334028060985
H         0.52263248689845    3.25028966315096   12.13260129685009
C        -1.47813862851543    3.79884492015844   12.64942288682536
H        -2.24699954709710    4.51864278499314   12.37281569590637
H        -1.30388160913266    3.86940644667816   13.72106209157092
H        -1.86157953001495    2.80168140629483   12.44131118421232
C        -0.46841568541433    3.96320875507508   10.34949696209116
H        -1.23970380577632    3.22458455812884   10.14425357643638
H         0.41992237061648    3.67912525639817    9.79158071556604
H        -0.81612803813344    4.92388880760661    9.96743464509482
C        -0.48667069749094   11.03469967814267    8.87088444915833
H         0.42192666728807   11.64153422308529    8.90202732153646
H        -1.32172630539438   11.65320988467807    9.19176554617716
H        -0.66981730520313   10.71965253605642    7.84192954256625
C         2.70482375223897    4.86242834516693   10.81798518755333
H         2.60284248948218    4.40463919187712    9.83150268058029
H         2.58433238850719    4.08476869596022   11.56868744512973
H         3.71011350993702    5.27881835388352   10.90964978738680
C         0.64866397024780    8.54393976250291   13.31362787484957
C        -2.04858530235654    6.88539004189917   11.00590990917158
C        -1.61771785983224    6.87197080355456   13.63135039944918

