70
CSD_code = SIGTAG | q = 0 | S = 0 | Stoichiometry = C35H28N3O2PRu | MND = 6
Ru       -0.26811400979279   15.14876195445111   11.84644055352307
P         2.01818568923867   15.47614998434078   11.93347508987649
C        -0.23395729026036   14.06312834777043   13.46254838574984
O        -1.60209575980567   13.45135260885896   13.63421815713636
N        -0.77484264023108   15.75801876334738    9.93690036495772
C        -2.67093918517498   16.98378168679091   10.77654337803319
H        -3.50833654924877   17.58628508734758   10.42546527423080
H        -2.05481579238521   17.57311633898768   11.47008108336798
C         1.80958984434846   17.83352899800451   10.48648598809765
H         0.74948272351155   17.66876816651037   10.63192266858232
C         2.70280797239948   16.91318084050019   11.02057991886533
C        -1.81481601640235   16.54163224558907    9.62227524165747
C        -0.19997531089251   15.02911367882061    8.94686879421260
C        -2.12563903984860   16.85148695517076    8.31222078999458
H        -2.95244488758122   17.50789207403584    8.09087280513583
C        -1.34542657638515   16.31867283991354    7.28680226431876
H        -1.51505389292226   16.60666569148147    6.26118953111083
C        -0.42061066906533   15.34512554926053    7.60491974681290
H         0.10661927000965   14.81638940754537    6.82750780001808
N        -2.23580981287794   15.00181424213723   12.10521440771726
C        -2.58159003642445   14.05431252068426   12.99251929476586
C        -3.17241708780604   15.78736933902101   11.55335085754153
N         0.12704369566490   13.50310853053652   10.71512026361454
C         2.79222363730826   15.79767114673912   13.56227033043425
C         0.41360126593070   13.80328122704861    9.41495384746815
C         3.22792751490744   13.00553536449041   12.16502083797124
H         2.75855168234578   13.01473833474344   13.14013390977551
C         3.07379164450055   14.11395514878113   11.33345120120845
C         2.02997972416475   16.41310521141080   14.54785335339670
H         0.98929853902188   16.62430379830252   14.34542791944329
C         3.97567431860836   11.92174079497793   11.74539828754102
H         4.10444539410208   11.07121448791108   12.39901184711358
C         0.42583654960646   12.27361554488151   11.14252543126292
H         0.15852147224602   12.03696299658890   12.16324374282516
C         2.26825308799477   18.94043235172591    9.79467374997513
H         1.56503467941778   19.64895303366903    9.38072512389054
C         4.07010698080187   17.12645042734810   10.86829949637389
H         4.77710467420996   16.42513579753406   11.28603396829431
C         4.12610521536315   15.49794206178290   13.82544941551684
H         4.73432323254606   15.00002459161647   13.08334354431106
C         3.63108772092959   14.09678599415663   10.05965131930949
H         3.48794812220596   14.94118809814736    9.39785715280367
C         2.58786031361201   16.72200154373600   15.77498745446936
H         1.98334694689775   17.19125952745517   16.53727341529570
C         4.68106478283994   15.81100108342247   15.05289012494049
H         5.71651689369145   15.57024287463774   15.24817143222113
C         3.91589513448279   16.42529850529155   16.02976376787276
H         4.35299112974256   16.66383275966132   16.98856445708163
C         1.41007018691144   11.64954063766264    9.05719261936595
H         1.92655309979169   10.93925234247039    8.43084097212036
C        -4.51675560761893   15.53871583872152   11.75772877478210
H        -5.26095450398112   16.16462669520804   11.29172139573377
C        -3.92199442524562   13.75030423433325   13.23769741175011
H        -4.16353266609767   12.96442696452891   13.93315566058599
C        -4.89242551980196   14.48507655215891   12.58607366967204
H        -5.93685404562725   14.26768927965323   12.74677354874528
C         1.08455501795808   12.90277309567932    8.58591080479045
H         1.34591629115437   13.19530656561550    7.58132581487870
C         1.04366713060265   11.32214929333503   10.35971866222205
H         1.24988922728351   10.34531473526451   10.76613072924784
C         4.55723043086680   11.92387093949632   10.48696864933700
H         5.14635272919300   11.07881358875238   10.16125757210681
C         4.52690820526999   18.23258794862176   10.17637186172973
H         5.58946298623114   18.39047995779240   10.05888997478630
C         3.62902535348344   19.13920263136988    9.63484769461007
H         3.99199870367167   20.00109455390003    9.09406536286581
C         4.37701160833881   13.00756549325122    9.64405805228142
H         4.81897604930468   13.00540156259238    8.65769692661773
O         0.57967920241952   13.57928131271826   14.19337634593630
H        -0.39031474980255   16.48569722024868   12.62579970571368

