46
CSD_code = SIGXOX | q = 0 | S = 0 | Stoichiometry = C18H23N3OZn | MND = 4
Zn        4.24531639904340   11.01343957849870    2.32627741647517
O         2.95290930618104   11.30522564896954    0.83562430143771
N         2.78758135837130    9.89668587024189    3.30394087369816
N         4.88981321781401    8.13653138951424    2.91094530121940
N         5.07701883677828    9.06720946025720    1.96471847262533
C         0.90793320263372   11.58790737904712   -0.33214149645140
H         1.55217205352862   12.16499185658234   -0.98979158589714
H         0.08371771442314   12.21101355955469    0.00670565953834
H         0.49500010095215   10.74657445749253   -0.88509725218060
C         1.71064586387201   11.08635284061226    0.85482480667836
C         1.00004401054706   10.39793396294399    1.83595145218260
H        -0.05933781755199   10.27389618325308    1.66648407741260
C         1.52158547478832    9.79602322240167    2.98434316399482
C         0.56930138475582    8.96563578838437    3.81225599082810
H         1.10345446402854    8.22634988472314    4.40594224437709
H        -0.14521685970663    8.45937093639712    3.16783251228531
H         0.01123855331079    9.61246621858671    4.48854736757443
C         3.37460186695176    9.31657142957979    4.40941461198076
C         2.98585162128505    9.60208405763223    5.72135228871705
H         2.14365406321486   10.25900157342200    5.87923561582782
C         3.68349876400532    9.09214518063286    6.79753613562313
H         3.36742823478288    9.33407249504605    7.80142352282078
C         4.79106381178188    8.28360649278486    6.59669259191440
H         5.34382489872747    7.89580411185056    7.43808950088601
C         5.19424477569679    7.98414533209902    5.30781678435424
H         6.06663727030779    7.37101309206697    5.13990236286487
C         4.49345602264161    8.48236971511624    4.21988802600067
C         4.91397805245794    5.64631929762873    3.19729817285641
H         5.85640544168428    5.33195808120776    3.64629709946414
H         4.57478836952179    4.84908118476901    2.53992751963715
H         4.18621554645097    5.78952453245140    3.99348942195557
C         5.08898207876963    6.89538835055711    2.41207742924651
C         5.42635827179342    7.05590996255646    1.08235498469514
H         5.64738361810447    6.28053349041847    0.37754824089443
C         5.40413761952011    8.43628431743661    0.84778883229540
C         5.68675590538415    9.18222951579671   -0.40358663217938
H         5.14670025173903   10.12699515147384   -0.38816208414469
H         5.38364666387244    8.59873968484700   -1.26956850064981
H         6.75272116942528    9.39374995562820   -0.48590004023300
C         5.49597558806050   12.30892711381445    3.21654034840002
H         6.25720173880484   12.67824409316316    2.52802340809399
H         4.97217413742373   13.19807283765834    3.57088386129634
C         6.21990107235811   11.69040728098223    4.41691204447076
H         5.51546125824755   11.35964529707668    5.17810895475875
H         6.89193010750770   12.41861418439681    4.87690858188568
H         6.81554451571168   10.83065395044479    4.11654361046968

