66
CSD_code = SIGYAL | q = 0 | S = 0 | Stoichiometry = C29H25ClF4N2O3RuS | MND = 9
Ru        0.87337045321202    3.65153785440769    8.80971117639827
Cl        2.32362016238297    4.39698524997764   10.46804777045694
S         3.38678509362112    4.71590338138667    7.56877100574728
F         1.88690727982838    4.34130962157142    2.66545702604747
F         3.61882639297862    6.19566932854393    1.82372378108713
F         5.44421574566325    7.29160166968256    3.53747255753094
F         5.47152507322170    6.52645812769783    6.12259059564917
O         1.91465471473493    3.52623361445396    5.41105999717525
O         3.56574488789937    3.30473987406391    7.74728593995544
O         4.23597228325260    5.61886204068476    8.27915189859378
N        -0.15691774383661    5.43614558177364    9.39658901898458
N         1.81570005492516    5.08290413924659    7.64578222911863
C         0.10995260736078    2.13462674941325    7.13845278284699
C        -0.91415566414848    2.42917574442902    8.05042371881873
C        -0.72332307914506    2.21496407722217    9.44436421075605
C         0.50233454172316    1.72832341420729    9.93743073452530
C         1.52510695188785    1.40623290566431    8.99731643330530
C         1.33088706567007    1.59979308296620    7.63567803708026
C         0.71792281701013    1.47547976901922   11.39783482848987
C        -0.09784595157457    2.26975380217546    5.65454394168505
C         0.52064293094156    3.56082584304564    5.11432522501000
C         2.72520598784481    4.47872113591103    4.90725673400154
C         2.74445010059685    4.86894548588213    3.56447870410088
C         3.64655010570544    5.82277889472353    3.10758153602026
C         4.57218093934262    6.37739961459097    3.97810559695746
C         4.56891101163076    5.97773118180973    5.31449093187892
C         3.65115002735978    5.05706591919326    5.77901605090524
C         0.11501872482202    6.57096643813543    8.49378296184105
C         1.59133163266801    6.45584171512958    8.05896775395196
C        -0.13207130754273    7.91027734747811    9.14152896149740
C        -0.88417496771020    8.87740743025631    8.48882324896366
C        -1.07847500705516   10.12139572005228    9.06354617356538
C        -0.52305625339429   10.40881405431418   10.29801725061430
C         0.23343004997503    9.45056876350179   10.95208488416056
C         0.43203041215908    8.20815284411323   10.37759168326593
C         1.95030626329942    7.39456388172382    6.93345089780709
C         1.28865073904593    7.33653179243583    5.71280850751922
C         1.67186437262579    8.15188418053956    4.66325562660040
C         2.72460950281988    9.03753720805505    4.82174138184657
C         3.38726421437493    9.10338282067979    6.03536877359621
C         3.00270056644959    8.28717504411159    7.08519446418817
H        -1.16012581964647    5.37526332348073    9.58171368929323
H         0.32570247079038    5.61398253727885   10.29267270357291
H        -1.89101607978216    2.73300727435308    7.68697379245100
H        -1.55755730486405    2.35984440412865   10.12583427365612
H         2.45408500875068    0.97644579837326    9.35156239019610
H         2.10832323100011    1.32263393001749    6.93707996731131
H        -0.21322937710310    1.55486051339499   11.95403289548848
H         1.14847627298381    0.48855907165184   11.55740254187488
H         1.41763101144287    2.21879026072967   11.78661804442085
H         0.37025405098467    1.42478513427185    5.14554223186442
H        -1.16367542334042    2.27833028290105    5.41739118982804
H         0.08002267384773    4.42434123577179    5.63024002718501
H         0.32990639326780    3.63350248663467    4.04028462530772
H        -0.52327449073994    6.45421780938527    7.61002020334811
H         2.23200649660682    6.69073009987931    8.92416843543391
H        -1.31254058269215    8.65831485399577    7.52139579181681
H        -1.66318384296799   10.86638210934883    8.54515357190084
H        -0.67423441132526   11.37877456779329   10.74708823747536
H         0.67615797938165    9.67296061377813   11.91110651906026
H         1.04290949140484    7.47699045240674   10.88864054585247
H         0.47234664889162    6.64199630550667    5.57756202089191
H         1.14932250766348    8.09544452187948    3.71912830132831
H         3.02964011122221    9.66819611906948    4.00023739028101
H         4.21399334306153    9.78528483806471    6.16265456309152
H         3.53675590853636    8.32039411163228    8.02159101452616

