86
CSD_code = SIHBIW | q = 0 | S = 0 | Stoichiometry = C40H40BrNiP3Si | MND = 5
Br        2.84397592392576    6.46835887391899    5.02200666671561
C         6.14335106852547    7.11070868016600    5.55643067531036
H         7.02609027911000    7.67365489866752    5.83706945502949
H         6.47089852364538    6.18590605458770    5.09395680980676
H         5.58084387408260    6.86118474630016    6.44825789759879
C         6.40147298123822    8.85727327803808    3.08993674005036
C         7.31666174927323    9.84757003319462    3.39683647904198
H         7.31709807494647   10.28400963623031    4.38594272442360
C         8.20783362212462   10.29185455186098    2.43453172458676
H         8.91065402508100   11.07832396511044    2.67041249984782
C         8.19544641322737    9.73633416636713    1.16473292241906
H         8.88945785860383   10.08875871267943    0.41485799025543
C         7.29720294086703    8.73159281468595    0.84942773851094
H         7.28874135671978    8.30561314646691   -0.14525714409286
C         6.40113288453399    8.29754577877182    1.81553995293898
C         4.48233764586240    9.76236320839570    5.20175098427696
C         3.47677604269148   10.47530680005449    4.55460391860066
C         3.03452150118976   11.69276044621558    5.05497348329473
H         2.25122759010600   12.23820295329222    4.54621042700012
C         3.60455411925547   12.19938365959001    6.20877018983224
H         3.26657181863146   13.14640491758148    6.60442573518579
C         4.60242014774980   11.49146608930661    6.86144295891797
H         5.03658088614529   11.88766407890020    7.76815308883103
C         5.04214621157727   10.27980177631326    6.35648381947883
H         5.81608231635553    9.72679327040235    6.86641275661697
C         3.41260845126646   10.74575690490696    1.72632002876657
C         4.56438156558440   11.51072288773508    1.87487466614064
H         5.04585615956155   11.57553424221636    2.84075863581821
C         5.09593288934106   12.18109035272641    0.78801679263692
H         5.99513997566488   12.76751276771502    0.90962455616531
C         4.48285437031260   12.10090887474568   -0.45162943852511
H         4.89945423837783   12.62859118675656   -1.29715329499419
C         3.33841050915270   11.33435048179157   -0.60846574924185
H         2.86086612513397   11.26218455820711   -1.57561060476932
C         2.81647922462569   10.64686147365479    0.47050403509600
H         1.94327462418564   10.01880660262593    0.34642191994423
C         1.04248397697911   10.20640267029680    3.25847327929037
C         0.42347129725167   11.24053402470163    2.56769978159623
H         0.96758559053684   11.80298735364253    1.82140156276815
C        -0.89505566573519   11.55906160494547    2.84452020782989
H        -1.37365732722326   12.36487619136767    2.30598607653454
C        -1.59817447355717   10.85765443226763    3.80992231640113
H        -2.62623603829893   11.11413177826125    4.02018925644050
C        -0.98107494731642    9.83096244688563    4.50728869309517
H        -1.52335820161373    9.28366723577672    5.26398747150279
C         0.33277288284706    9.50483107973347    4.23170039255842
H         0.82114324090640    8.70213725619037    4.77027088314199
C         1.32033730700075    6.94447017682289    0.13699242371481
H         2.20396775819723    6.95463506748083   -0.49857735487619
H         0.86722019059640    7.93478318347893    0.12361603601934
H         0.60429701268135    6.22147442645978   -0.25181606794258
C         0.10567213626903    6.46529188834868    2.61700520047187
H        -0.53878594298371    5.80435475302166    2.03833648688977
H        -0.32026105004402    7.46764452244234    2.63564600861351
H         0.18856012437546    6.09905470725765    3.63933572395817
C         2.08684511468557    4.71572371036093    1.69231431172513
H         2.18362896986093    4.28389346542125    2.68832143917180
H         3.01370323573888    4.55336421217525    1.14228750026918
H         1.26078620200420    4.23754048983275    1.16699583163794
C         6.12788961223181    5.51659044618366    2.03313225011352
C         5.63213899720837    4.62926632869742    2.98081680857201
H         4.67901072600841    4.82934331627721    3.45444675132513
C         6.35580208510567    3.49991240512150    3.32149488994359
H         5.96560723082256    2.81534473962527    4.05973328758993
C         7.57797217533219    3.25726643663409    2.71833866719679
H         8.14653859557720    2.37769430095313    2.98260928080752
C         8.07794795481499    4.14372239214581    1.77552331544536
H         9.03369320583037    3.95325818020464    1.30864415819786
C         7.35836525918209    5.27178354338514    1.43153041206465
H         7.74689986970460    5.96497478540474    0.69831309661476
C         4.71335801797989    8.01032212679093   -0.89788273720716
H         4.68680536216320    8.96160313649279   -0.38263014049516
C         4.49956356195007    7.94955017218383   -2.26130968539359
H         4.31482149301570    8.85754557386727   -2.81714750508241
C         4.51974073751797    6.72532305997313   -2.91164713409455
H         4.35153148184027    6.67629828433994   -3.97744028198924
C         4.75177349624057    5.56404494499988   -2.19277450520981
H         4.76208176730511    4.60887449411425   -2.69772714331093
C         4.97154026544418    5.62060474347988   -0.82790488362889
H         5.15728517009851    4.71194961165845   -0.27051026935343
C         4.96726174013122    6.84778659886540   -0.17322179008813
Ni        3.45905280762695    7.52670004738745    2.97474617999013
P         2.78081429126356    9.69259327536648    3.06364577737178
P         5.14579516109303    6.99735603918089    1.62908191812130
P         1.77608669631865    6.51568972051746    1.86523756661905
Si        5.10541285522047    8.17686774933406    4.33693221381785

