75
CSD_code = SIHCIX | q = 0 | S = 0 | Stoichiometry = C37H33O2P2Re | MND = 5
Re        1.25945089460373    1.43844240187938    3.76935134485937
P         0.45051496765198    0.23115870435194    5.73047499821317
P         2.26124915234178    3.00026365075717    2.16931149493084
O         2.55272334505446    0.41543146430104    3.45124612124593
O         0.27327665873494    2.65989352521428    4.38118334497077
C        -0.16684313512165    0.50743825983108    2.37351668104033
H         0.07109515788608    0.74435465861776    1.33462957505703
H        -1.17592877959673    0.85965485809230    2.59162359299895
H        -0.15777933731687   -0.57722653031413    2.49231280474590
C         1.18513838548066   -1.36315740099897    6.20591372781504
C         1.14779081202084   -1.82844771912258    7.51699104410648
H         0.67685435512022   -1.23164865905772    8.28652408857969
C         1.71350145182650   -3.05111309761732    7.82774752891787
H         1.68336312682740   -3.41498506485950    8.84479387962514
C         2.32113056801868   -3.80880606628151    6.83810920123582
H         2.76303803294494   -4.76259983860428    7.08748806403600
C         2.37046788418238   -3.34127233772934    5.53513800422431
H         2.85474219050172   -3.92806489917626    4.76844114302950
C         1.80402840278143   -2.11933380804283    5.21699334757729
H         1.85545147977593   -1.72095110533700    4.21224597297944
C         0.82224073697770    1.26408877991468    7.18177351409956
C        -0.09087988980990    1.55396743183294    8.18718920834885
H        -1.09695485924092    1.16112807501875    8.13500543874122
C         0.28915098739800    2.35712046996686    9.24938764589706
H        -0.42313377325313    2.58599728704687   10.02905466469383
C         1.57365076881132    2.87018317390254    9.31329422457384
H         1.86179151255094    3.50019729729100   10.14222352893671
C         2.48758351114825    2.58223807772343    8.31098598043442
H         3.48853569228357    2.98646857436961    8.35874031314076
C         2.11344497042286    1.78253214384290    7.24874504115466
H         2.81182566393542    1.55745556737127    6.44926435521091
C        -1.34091999256869   -0.03839312475438    5.83514964046358
C        -1.91843879878067   -1.26497885212442    6.14024744125620
H        -1.29420711691131   -2.12323990761215    6.34520550522417
C        -3.29755994969389   -1.38262919225657    6.18000550500742
H        -3.74667837010999   -2.33546323040419    6.42068109850438
C        -4.10086736960655   -0.28701214766221    5.91168778567798
H        -5.17608503323358   -0.38580038618073    5.94681816798365
C        -3.52635307029854    0.93354384190359    5.58874092990092
H        -4.15400176749890    1.78469211146406    5.36805584324722
C        -2.15150836008543    1.05798944546840    5.54542142323160
H        -1.67659043209906    1.99254419742015    5.27254406190218
C         2.70846550255829    2.40107856093114    0.51491796748457
C         2.61191125677958    3.18191626990918   -0.63115229109111
H         2.25000989004272    4.19851737456617   -0.56580605877518
C         2.98059400338997    2.64979552626686   -1.85459245910124
H         2.90780478549626    3.25575567475414   -2.74625659155463
C         3.44084570306231    1.34577504431065   -1.93922328755503
H         3.72744730090219    0.93794771019790   -2.89766277972718
C         3.52605053596361    0.56228229777228   -0.79828629109637
H         3.87591036544206   -0.45724652176063   -0.86769478385570
C         3.15727891306586    1.08555701966245    0.42641032579842
H         3.19371357083592    0.49037325949737    1.33095386827203
C         3.83942112131645    3.56400664895779    2.87439364727015
C         3.79551890003115    3.99147011116590    4.20074960926375
H         2.84567561683062    3.97785612531143    4.72472789489680
C         4.94897445206842    4.41297964898877    4.83257945845218
H         4.91372823021631    4.74376454876107    5.86062219222500
C         6.15451485297858    4.40416301590845    4.14652645106903
H         7.05903107671243    4.72798670544966    4.64052994633809
C         6.20223941777008    3.97321927060429    2.83137387377157
H         7.14352011807758    3.96188928134810    2.30098563050153
C         5.04868655271339    3.55196621262968    2.19106816567260
H         5.08732072315639    3.21019107995800    1.16615179866453
C         1.36959695815248    4.55138834881242    1.86391243115254
C        -0.01625660678374    4.47857266089372    1.76644567532592
H        -0.49824366928497    3.52090603550551    1.91003529966249
C        -0.75266065816422    5.62297758304251    1.52159555337815
H        -1.82910646990932    5.56839062028468    1.45026898821153
C        -0.10957490192998    6.84178405885836    1.37433238410484
H        -0.68427669249868    7.73675138553111    1.18493141135734
C         1.27014884148709    6.91734110668692    1.47823873098633
H         1.76925810800835    7.86951878798829    1.36889757694487
C         2.01282427984691    5.77639040165723    1.72505895065159
H         3.08951724802247    5.83437351533236    1.81140943338185

