47
CSD_code = SIHFEX | q = 0 | S = 0 | Stoichiometry = C18H18N10Zn | MND = 6
Zn        1.52338983484225    3.95163172301494    2.56594160240169
C         3.00513927442099    4.79617132328214   -0.09724551627151
H         3.96052167806966    4.82118528161515   -0.64488741051184
H         2.40782121532251    5.65824950097041   -0.41080858457019
N         1.12135912353729    3.36527646012074    0.25170614156495
C         2.22489052604671    3.56341602568306   -0.45943544073512
N         2.88337911415529    2.23777702805405    2.10414785478692
C         2.61616013164745    2.70815863167104   -1.47998251849020
H         3.52625974658403    2.89489677175909   -2.03039084289975
N         0.85049701021984    5.91933472926506    2.04465883984456
C         1.82132112183790    1.61063454478069   -1.77026097030281
H         2.10735817688893    0.91856976413796   -2.54858146550131
N        -0.08858690610492    3.10655434323914    3.01970326938718
C         0.65462493044018    1.42613201379133   -1.04784525188122
H        -0.00167214191302    0.59454675904504   -1.24674236313732
N        -0.46342595281086    1.99972623897336    3.04780082638610
C         0.34892252363827    2.33505671969299   -0.04607247409562
H        -0.54923323577204    2.23042699955179    0.54289673269566
N        -0.88721598513976    0.94632227860458    3.05973110878944
C         4.35757666960470    4.10227932305813    1.76105916917929
H         4.52768150884618    4.31784457575232    2.82021610282371
H         5.26477602162399    4.35714510072202    1.18985801999543
N         2.47543467727342    4.47310170106915    4.11604532418045
C         4.07344997053290    2.63157649707135    1.66414551064719
N         2.47187157555949    4.38414949361598    5.28396431147276
C         5.01203490756799    1.72900509291480    1.18075322519342
H         5.97245341407007    2.07863808947708    0.83286460913838
N         2.56598615421995    4.35698999399566    6.41225247872916
C         4.69545803676309    0.38098787162834    1.15686127688195
H         5.40553510142856   -0.34156384577875    0.78262610872940
C         3.45403238378163   -0.01909278698132    1.62321506092175
H         3.16541194441126   -1.05751861434811    1.62876662516616
C         2.57992102142719    0.95003479844352    2.08988545733517
H         1.60222744282365    0.68287059287556    2.46407885386392
C         3.21544353860051    6.24795632198156    1.81201875731068
H         3.89632457705319    6.89218702809946    1.23518405544499
H         3.53829963619592    6.23591112441764    2.85729724345962
C         1.81632493310337    6.79672119410524    1.80393551721764
C         1.54714391177846    8.14490386489778    1.60149184493524
H         2.35228355838399    8.83750939384863    1.40733479939548
C         0.23340626181727    8.57942307479661    1.66275596292208
H        -0.00436090962458    9.62211654899238    1.51260114004381
C        -0.76598482041531    7.65376012106267    1.92066866479060
H        -1.79990437163805    7.95336654439583    1.97996089702665
C        -0.40537779040541    6.32876842370486    2.10476593457272
H        -1.13364517460787    5.55937056207555    2.31399078206177
N         3.20648563391286    4.87649077685481    1.33946872909987

