70
CSD_code = SIHHIC | q = 1 | S = 0 | Stoichiometry = C29H35O3P2Ru(1+) | MND = 9
Ru        3.69868250515271   11.14338215861494    5.49749409143210
C         2.35137166896298   12.83861981014836    5.91546179903674
H         1.43408269161869   12.47710666626626    6.37638695757385
H         2.18835642514560   13.51877551981790    5.08380001162195
C         3.46827373504966   13.01476226971359    6.73144463163054
H         4.18584569712795   13.78448920367878    6.44872804368384
C         3.42507478480284   12.78517526344938    8.21654488636609
H         3.40961850079718   13.75693573093186    8.71176166615250
H         4.30813437156155   12.25646619005877    8.56940805483925
H         2.53344250282463   12.24206487066291    8.51914283455651
C         4.12303382563890    8.94082296912124    5.56833351307896
H         4.97639341523576    8.36244496152900    5.24258758733514
C         2.91539378477110    9.09286217892408    4.84798156533357
H         2.71543746575412    8.72454919940514    3.85101481655607
C         1.96936071986013    9.70661330119992    5.70011769242112
H         0.91700409611225    9.82281588246446    5.48321718960292
C         2.57274841949494    9.85078916475358    6.98584152685469
H         2.05249049797243   10.13303549255757    7.88949260601531
C         3.89693985346617    9.39380111936392    6.90820154229249
H         4.57453835339096    9.26597575092871    7.73984662869898
P         3.73738435613048   11.89523910849848    3.29033122621241
C         3.49355574410435   13.62139943448314    2.74528206918106
C         2.86155906855532   13.89859815156621    1.53542149012488
H         2.48168344778149   13.09444555450764    0.92278006734183
C         2.71844885648131   15.20898773180199    1.11442255229718
H         2.22576448914680   15.41630123970178    0.17681234899527
C         3.20277565007126   16.25011709321990    1.88916410575124
H         3.08450305063020   17.27030465386786    1.55826244452608
C         3.84082638232206   15.97873326642877    3.08909317999077
H         4.22320729991166   16.78735801375212    3.69368298384074
C         3.98622994940708   14.67139515784045    3.51669990363658
H         4.49085632290081   14.44856859258954    4.44495722172373
C         2.44861504501663   11.05027087050797    2.31805468043903
C         1.13636148587526   11.20759635046072    2.76190783590310
H         0.94601243828158   11.80482658888033    3.64440703623162
C         0.09291825252159   10.61666063523841    2.07618836336043
H        -0.92180453681543   10.74443165014722    2.42178369017649
C         0.35043097518259    9.86099937698312    0.94210023697708
H        -0.46283123843645    9.39453482909914    0.40804510002978
C         1.65101600035608    9.71182820705990    0.49109709022272
H         1.85204437394938    9.13366853786304   -0.39809353155796
C         2.70154137982903   10.30624371839134    1.17102095419867
H         3.71133838527794   10.19629886812222    0.80300285238425
C         5.29686100539435   11.44601714788729    2.46842316950199
C         6.15011326032165   12.39529669345045    1.91819545249595
H         5.87461015804236   13.43946477806332    1.93067566415995
C         7.34957364780246   12.00054831527894    1.34953544925431
H         8.00971269098970   12.74257498288200    0.92615006996673
C         7.70080549799427   10.66204763006436    1.31550619955121
H         8.63386843619769   10.35806350860824    0.86656883297278
C         6.85003346734154    9.70987199967761    1.85594343089416
H         7.11824249637016    8.66392984912835    1.81875468446407
C         5.66000404969688   10.10011455674083    2.43943577590629
H         4.99266384524050    9.36195213336919    2.86653021805809
P         5.91029135327416   11.71431661418063    5.69020199848232
O         6.26827675209433   13.19302592547753    5.20664459828120
O         7.16341119801594   10.95285983468615    5.00356029718124
O         6.25796066294076   11.61443210541197    7.26414179646973
C         7.53132769530643   13.68927227088520    4.74731925381212
H         8.15453084992413   13.99148010094288    5.58999942331546
H         7.30268694293438   14.55940251016359    4.13219614975849
H         8.04970118585721   12.94206867086186    4.14883310552959
C         7.54198584583403    9.62113465023361    5.31444146350325
H         7.19817764795687    9.32763183242432    6.30776166003365
H         8.63177423279488    9.58576629467659    5.28457894741345
H         7.14646204394690    8.93970018363182    4.56092086927401
C         7.51907551649782   11.99562426501817    7.81786385953760
H         8.33971298982037   11.78288316884908    7.13081730128746
H         7.64997393433679   11.41869262710482    8.73321651046354
H         7.50990209978580   13.05943201575684    8.05865227138269

