60
CSD_code = SIHHAT | q = 0 | S = 0 | Stoichiometry = C22H31NO5Ru | MND = 9
Ru       19.65190784668132    0.62030998195117    8.47889061104932
O        18.90131530667219    3.59901565389309    6.01971607210919
O        17.90674953254882   -0.30609001770989    7.72557337076460
O        16.35030953517718    1.20187591330349    9.58641570126454
O        17.42614860812324    1.97729026422029   11.40726948655774
O        20.04064000264371    4.19876650772013    7.86506793907326
N        17.85819122592021   -1.30001568013212    9.73045523027102
C        18.50324084971702    2.36989420205955    7.95462135011558
C        19.23414919730011    3.46047356060660    7.33033743249752
C        19.55928428342371    4.64242141395965    5.32727232085723
C        21.54495657548010    1.71793853475635    8.44535343407288
C        19.20826427540756   -0.79172362929948   10.00346552349556
C        18.51390987305347    2.22006761182289    9.37500331833508
C        17.30399534682503   -1.00300961443054    8.56120600517676
C        17.32665910904862    1.74153008438946   10.07241141296413
C        15.84081862944157   -3.05983113922096    8.19736783662380
C        16.83032228417721   -3.44845238181199   10.51025563839124
C        15.63316502390088   -3.65181555097491    9.58781501395764
C        15.94013420273852   -1.53283823286292    8.19790703257848
C        16.34639503591079    1.56361111651597   12.22502394804363
C        22.33220457285484    0.03838402665608   10.25529781537905
C        17.13490511641742   -1.97424471391318   10.79124236840827
C        22.57225954289530   -1.17123308726858    9.36765676511217
C        21.27946857538214   -1.85353062838067    8.93075832437253
C        20.55758613728317   -1.13229606837397    7.80759316167111
C        20.21366007592633   -1.98508909215917   10.03705794865380
C        21.38548912380816    1.08301267159073    9.70668112700470
C        21.57656248131001    1.09466725158738    7.16794507319108
C        21.05385149165289   -0.16895941618902    6.86853065043431
H        19.40668856904117    5.59588991637422    5.83860161394859
H        19.12559677206904    4.66960619327885    4.33061242679715
H        20.63384608183587    4.44883365913072    5.26931822246283
H        16.17652613743879    2.34581736544488   12.96345546855068
H        16.60366659338903    0.62915724588017   12.73003264014176
H        15.45251387884887    1.41682266967193   11.61440110737537
H        17.61154399644889    2.05589145063957    7.41104043910792
H        21.61793663129740    2.80662289725973    8.42927574019520
H        19.17149776291543   -0.33351474144355   11.00363183170839
H        19.10928569041460    2.92400300676719    9.95751982837007
H        19.89001233107471   -1.85065901649064    7.30838640414068
H        21.19041090490283    1.81306771387431   10.49979202652086
H        21.85908866315269    1.72101853404682    6.32490702420536
H        20.86861059055543   -0.36041915807628    5.81172891020443
H        16.74020070924417   -3.48377086834707    7.74553836293958
H        14.99281667905356   -3.34545102315089    7.57176225648288
H        16.62456668289411   -3.93921593195359   11.46395595530707
H        17.70983537875457   -3.92629416185971   10.07575879180215
H        14.74821237674980   -3.19924960182540   10.04112221346418
H        15.44238025930228   -4.72326017227012    9.49201828468462
H        15.21281780835554   -1.10124655515946    8.88745335982061
H        15.72376003097720   -1.14517219539549    7.20158576525160
H        21.95597052473182   -0.28791501542000   11.22604762764833
H        23.29419588333100    0.53241633458155   10.44063922144469
H        17.75420570444923   -1.90372686601964   11.68761074995772
H        16.19659910812686   -1.44079827989092   10.98029368568247
H        23.13029949261004   -0.87509101246593    8.47605807773474
H        23.18649215506537   -1.88878108218747    9.91817457261077
H        20.68477026874193   -2.07788864730086   11.01645307891082
H        19.65358174049718   -2.90595902445994    9.86084739364483
H        21.55422673203237   -2.85606317555598    8.57218500646603

