67
CSD_code = SIHLOM | q = 0 | S = 0 | Stoichiometry = C25H36ClN2OPRu | MND = 6
Ru       -0.64343190228541    7.88792721502058    4.73438561350307
H         0.69520633542213    7.56590398509439    5.37144512352820
P        -0.86324505416509    5.69917351274140    4.04102234334394
N        -1.85814428196208    7.22907039541828    6.34731161924528
N        -0.83778739111450    9.83114150145865    5.49350467005060
Cl       -2.83473827439956    8.50584099656771    3.89247980590234
C         0.33457318716799    8.40263291462439    3.27256467391052
O         0.98696972727140    8.68376246955410    2.36159371572167
C        -0.89917573567275   10.78334663252859    4.55393637336204
H        -0.45050539354005   10.55274689446644    3.59579006330763
C        -1.50719674004095   12.00808692596560    4.73441571716528
H        -1.52715491216667   12.72268929624280    3.92764724409111
C        -2.11479477228675   12.26771751586663    5.95077172134537
H        -2.64740165631445   13.18931051665918    6.12867653125879
C        -2.01254941023135   11.30974761515778    6.94221255031494
H        -2.47405976704297   11.49995564570558    7.89566602245660
C        -1.33884330449720   10.11553500972934    6.70615938605152
C        -1.15004971399759    9.08627003925213    7.81484783548405
C        -2.05167203696200    7.90488114706415    7.49307758833142
C        -3.07718291629908    7.56989205786138    8.37094428899237
H        -3.25379470395827    8.15050792934146    9.25841746987183
C        -3.89185296720016    6.48449698339946    8.10827126068504
H        -4.68724036980937    6.21278168438825    8.78501415024501
C        -3.65990176062322    5.76926477510601    6.95246261349069
H        -4.26777798606058    4.91513732156737    6.69616252463806
C        -2.65307749840653    6.17724953862289    6.08623767183794
C        -2.51850023537025    5.42675364976182    4.79666626777946
H        -3.21935843130023    5.88823354059025    4.08901851871962
H        -2.78361892398840    4.37372326505392    4.92401138334507
C         0.34586580294771    8.71774385577060    7.95567371509970
H         0.42217968373128    7.81330511767860    8.56226919249679
H         0.82884947638633    8.53516294494823    6.99988467142471
C         0.97418970748519    9.91158334421307    8.68005257335799
H         1.39042773874006   10.61188154139967    7.95584326130799
H         1.78507556773560    9.58734448433762    9.33049176810474
C        -0.16840735911931   10.57028717718510    9.47048334030567
H        -0.35698435754846   11.57821736897847    9.10090653347891
H         0.05569313929253   10.64363166504798   10.53398379017583
C        -1.37657550411129    9.66613521563849    9.22491085764231
H        -2.32423573238738   10.18193857396266    9.36325473486584
H        -1.33526674324224    8.83792964112571    9.93481353888962
C        -1.16935463886925    5.20178673614567    2.23694956988890
C        -2.11322464652516    4.01133250511342    2.05922214251280
H        -2.16695599288553    3.76777127179350    0.99838102495394
H        -3.11938380780093    4.25536165983145    2.39101013215251
H        -1.77611327189421    3.12538508836560    2.58588286291217
C         0.17689691636337    4.93401157080436    1.56287920734983
H         0.05346307788582    4.94002931930950    0.48044965040351
H         0.58664972307059    3.96751353704676    1.84477143954895
H         0.88757621462174    5.71670957816270    1.82847776717471
C        -1.79994666043030    6.41771207087771    1.55514359373478
H        -1.11485147052041    7.26309454404624    1.56705274861416
H        -2.71901161614221    6.73106026820358    2.04484459727837
H        -2.03201201501996    6.17961518327988    0.51759170902963
C         0.21885482816943    4.38964366372879    4.90017227889914
C         1.68011529421124    4.67156896162870    4.54541433787728
H         1.87518404256492    5.74160003959453    4.61355908873967
H         1.92556927240216    4.33749762846368    3.54273898853906
H         2.33894850045054    4.15464510845967    5.24175654523051
C         0.04299403465218    4.61735918979233    6.40470079770004
H         0.76069766618078    4.00918279671228    6.95433959100668
H        -0.95513817381762    4.34133889585666    6.74119271171297
H         0.22729722153947    5.66316564985556    6.64783284524556
C        -0.12623339032988    2.93498645886205    4.59021390166016
H         0.47366202507431    2.28816767608289    5.23062053585383
H         0.10078679996089    2.67542803784624    3.56039347654597
H        -1.17347446300246    2.71799065500867    4.79202573035080

