63
CSD_code = SIHLUS | q = 0 | S = 0 | Stoichiometry = C23H34ClN2OPRu | MND = 6
Ru       -0.21366803767362    0.61395812567911   12.29734866691706
H        -1.04325495922250   -0.09505108178917   13.35514210780074
Cl        0.91418585337204    1.71643368857693   10.45078253523365
P         0.33578909208113    2.29501824876979   13.78007242997878
C         1.16471980023022   -0.46031127203652   12.84829022958096
O         2.01890409699102   -1.12426830475391   13.25343316681825
N        -1.75862531653465    1.96457214446129   11.70778234520849
N        -0.75455215566701   -0.59902785030361   10.69253377944105
C        -0.29648082752637    3.66580627627399   12.72703206998059
H        -0.42927795539048    4.61269517860328   13.25595195584900
H         0.47710138914183    3.78362636230705   11.95619369051517
C        -1.55370097363175    3.25466376967296   12.02862989423059
C        -2.45842283133510    4.25866398730200   11.70426530412152
H        -2.24182418347663    5.27993757277668   11.97762933067404
C        -3.62096632422913    3.93355221053778   11.03957108956202
H        -4.35239340638518    4.68604919056550   10.78787180294202
C        -3.81741624013686    2.61035893656508   10.69152789328532
H        -4.71775314081102    2.34508161077997   10.16866607376693
C        -2.86783300468805    1.64757822002898   11.01722269064802
C        -3.09116666297046    0.19979030464930   10.58473865297825
C        -4.28906862397846    0.06540240427880    9.63056674326607
H        -4.22900972790330    0.73822941350350    8.77873995610282
H        -5.21317052205819    0.26420554522899   10.16881419252853
H        -4.34164630927383   -0.95842116631260    9.26607479917234
C        -3.45092102210585   -0.66774152746188   11.80693621244295
H        -3.68806501566870   -1.67723769396033   11.47884360316153
H        -4.31973098116718   -0.24840526885491   12.31009771286207
H        -2.62808216173916   -0.71940461035175   12.51456135444493
C        -1.82295031774036   -0.34083287847315    9.92290510688892
C        -1.79471481891088   -0.60303072741326    8.55559145775880
H        -2.61627200957605   -0.31555458159184    7.92333601982586
C        -0.70035345008982   -1.22101689388930    7.97864420404631
H        -0.67056894203155   -1.40495009082615    6.91577067509205
C         0.33844348736230   -1.60681419421573    8.80780180192544
H         1.20193548561721   -2.12962708336144    8.42971453406119
C         0.27029559755139   -1.26156314756478   10.14121906249452
H         1.09167052153712   -1.52030052317911   10.79806984467413
C        -0.70219705188599    2.44557480358968   15.36965365230785
C        -2.16906337765763    2.43510065644701   14.92891552692369
H        -2.81297665384795    2.33036767539491   15.80151505083343
H        -2.35692810456040    1.59029046049056   14.26731451771507
H        -2.44385194440689    3.35765380647818   14.42078003886460
C        -0.46428606314472    3.70178806517116   16.20421601593098
H        -1.19437696061031    3.72837743863069   17.01331433901252
H        -0.59498652713361    4.60605216844744   15.61277711151808
H         0.52319150263255    3.70911628075753   16.65586290106106
C        -0.45252363371066    1.19330590336607   16.21279043841118
H         0.50494024332792    1.23045206969353   16.72166083688405
H        -0.47313488862140    0.31048914643753   15.57380966958965
H        -1.23019165370774    1.09157313176767   16.96848641746187
C         2.11759514118503    2.84981298884873   14.12398099977630
C         2.27991380688121    4.35773845408667   14.32254136069568
H         3.32009742806351    4.56379866152109   14.57396180142049
H         1.66200579660442    4.74528222086149   15.12513308222264
H         2.04991446128174    4.89971264698196   13.40846940571107
C         2.65398573186440    2.08071483771344   15.33220174929121
H         2.40162575083926    1.02426194663460   15.24306160532772
H         2.25855677092063    2.46588218947608   16.26843290423341
H         3.73935636136392    2.16810435027570   15.36957813029498
C         2.94700723812642    2.43793842878025   12.90639139178660
H         2.58555248468256    2.89859028324246   11.99027547078204
H         2.91831926118946    1.35877779425359   12.76766877200680
H         3.98479947837806    2.73717929643938   13.05003381963979

