83
CSD_code = SIHLAY | q = 0 | S = 0 | Stoichiometry = C44H10F25MoNO2 | MND = 5
Mo        6.49250252828335   26.93758312052133    4.99024391186336
C         7.12985818522300   27.75597217434694    6.89061929584951
H         6.61146390289428   28.61394740824531    7.31479812400483
H         8.19024599034097   27.78212117354419    7.12964880284608
C         6.48700799794312   26.46077115808376    7.07318846219495
H         7.12829448650796   25.66958319383890    7.46532451863090
H         5.52500821827317   26.49690356029878    7.59254891921879
N         8.03798224702707   26.20466018030671    4.66758086083001
C         9.07168890450836   25.40541021805002    4.40048911807566
C         9.18659281154046   24.66607880986490    3.20611162768095
C        10.27444030438345   23.84881256740602    2.95136897633211
C        11.29254142624106   23.72410297964837    3.89525357275533
C        11.20847099732138   24.42877615637292    5.09443332039882
C        10.12271274814618   25.25396120300404    5.32732858421491
F         8.19959626621695   24.77210062602973    2.30668403646472
F        10.34578713859274   23.16315662441866    1.80799087611435
F        12.33694255292257   22.92615076451656    3.65608329964757
F        12.17250446842393   24.30921816782447    6.00934280636219
F        10.03562210280347   25.95415641550174    6.47828413837838
O         6.33622135499422   28.79936426938261    4.34826885066713
C         6.59145460441777   30.01605773341594    4.77164844650902
C         5.54252592059388   30.95542339060452    4.93293983783094
C         5.81777423628762   32.26462705457514    5.31100497596756
H         5.00334686509572   32.96272900173511    5.42639836594149
C         7.11290306296458   32.66900081258881    5.56884905121496
H         7.31446541689436   33.68504294464536    5.86579581866138
C         8.14707849612016   31.76152675755651    5.44664273155463
H         9.15991914428138   32.07784348322635    5.64060356484806
C         7.91021353379657   30.44984332609869    5.04814860555359
C         4.13636496050239   30.55769653756345    4.73511273313135
C         3.25659272187336   31.32742044601467    3.96807164640530
C         1.91159057271949   30.99796597608655    3.82991397539622
C         1.40903939248333   29.85599516438195    4.44918115126326
C         2.26004068757405   29.07736736916090    5.22542593174193
C         3.59350559722264   29.43965274345650    5.36550609842664
C         9.06212585279120   29.54361473920129    4.89025171485050
C         9.25543403510376   28.78793693312056    3.73358619669263
C        10.39456449757029   28.01703031186680    3.53575093807099
C        11.37714829268132   27.97052310418854    4.51924081882493
C        11.20659870194326   28.69829251304942    5.69356830559763
C        10.06213163271844   29.46853009777150    5.86435761460381
F         3.71120591434141   32.40934262153953    3.33344217074514
F         1.10742457643980   31.76448864291776    3.09995870729720
F         0.13031440001013   29.51624584349728    4.30895713708104
F         1.79930704316427   27.99156426753342    5.85562934229068
F         4.35904662049376   28.70024037769597    6.19543121346313
F         8.35169514224811   28.85669120225739    2.74615720546890
F        10.55118244854805   27.31773086975785    2.41033971017679
F        12.46764424673741   27.22716674980181    4.33605049517981
F        12.13695340445349   28.66057482648859    6.64403187880232
F         9.91977394848572   30.14329493406963    7.01011818642178
O         4.77912976374358   26.65441111073264    4.63498195210598
C         3.64482338974113   26.26905267425531    4.09949009681328
C         3.23009704644712   26.83516190511589    2.87238057118873
C         1.95079138622736   26.58635345197147    2.39420770447477
H         1.63676586013137   27.03548313372322    1.46511616357934
C         1.09506493582137   25.74765484876838    3.08650896787607
H         0.10206502859489   25.56479635027477    2.71034225451010
C         1.52265130344011   25.11719427754956    4.23969975842365
H         0.87042969545137   24.42028072140376    4.74044587569292
C         2.79169209655951   25.35798484068032    4.75759907383709
C         4.20651218800719   27.61896195010856    2.09320286715130
C         3.90781185167139   28.84821778722821    1.51033052072102
C         4.83599301939353   29.54663914274504    0.74638017773612
C         6.09424395740907   28.99798627773850    0.51249402160268
C         6.41287719482934   27.75250843344903    1.05224682297398
C         5.48174078186070   27.09918157729684    1.85091444739064
C         3.26773179622199   24.66599512843330    5.96549175758351
C         2.44677842978853   24.49179941601180    7.08524018176285
C         2.88367100700510   23.82065619142922    8.22260933564626
C         4.17406758083758   23.29851130913344    8.27449801660479
C         5.01296310259698   23.45980631114891    7.17620844243585
C         4.55693656926512   24.13263224258160    6.04844420450276
F         2.69076407355288   29.38080424416125    1.69128756128708
F         4.51563020296776   30.73025169206041    0.22771397927580
F         6.97653536317386   29.65096932735732   -0.23563455855784
F         7.58627378506570   27.19265484626828    0.79448961066004
F         5.78722001858532   25.88509597326455    2.34592116796755
F         1.21110382398558   24.99159392156822    7.08878909952844
F         2.06931274727870   23.68113190997160    9.26678969923897
F         4.59840591024428   22.65865875142193    9.35992933077114
F         6.25662383060364   22.98060982977390    7.19955723313078
F         5.41084165639420   24.23336887539260    5.00481698953868

