70
CSD_code = SIHMAZ | q = 0 | S = 0 | Stoichiometry = C25H42N2Zr | MND = 5
Zr        7.54891965369368    3.25795031284841   14.96543787654995
N         6.52728880253349    1.53798492355347   15.84927595854236
N         8.44705594943510    1.28166424643166   14.12006554078514
C         6.95079885945824    0.26748540152932   15.62550270665684
C         6.49379605838644   -0.89953911110569   16.18180970305674
H         5.64509211902390   -0.89568758587607   16.84549560846392
C         7.11518251949856   -2.23807805593118   15.93457216185281
H         6.56496753951298   -2.77228270153630   15.14586411230814
H         7.04331902044003   -2.84813193584119   16.83919521605261
C         8.57097794592834   -2.09249350438819   15.50913837822320
H         9.00015327586109   -3.06346088703273   15.25221434030354
H         9.15130764599941   -1.66813972378830   16.33213696707716
C         8.62904643816997   -1.15668297499301   14.30934794282119
H         9.64990064447828   -1.02913057256839   13.93848191545818
H         8.03582649999036   -1.59028440077592   13.49552678149938
C         8.04578615175509    0.18332930116570   14.65706596056635
C         5.47446506856631    1.72815788430805   16.82907958781237
H         5.53754849996484    2.76495458870685   17.19447411812256
H         5.61162728092576    1.05729037639881   17.69436377593463
C         4.07467042327713    1.50442731579405   16.23069173007158
H         3.97005659582245    2.15636546676130   15.35856436477017
H         3.99069047945288    0.47159175951023   15.88454317644641
C         2.96464967103216    1.80215769225013   17.23424918946224
H         3.07705666558479    1.14987304168406   18.10406876738033
H         3.06125479487016    2.83376764856859   17.58109470816032
C         1.58129774458707    1.60078084301093   16.62684865768467
H         1.44212766500864    2.25977544834544   15.77263161495069
H         0.80492875386795    1.81717353498679   17.35742802084859
H         1.45808978821094    0.57372501797033   16.28936513597297
C         9.48614552701779    1.34052563394738   13.17731958761501
C        10.78538525243692    1.63033394564027   13.61839216961683
C        11.79494481393443    1.73659630064061   12.67259416108626
H        12.80620124654739    1.94238580622270   12.98839868327693
C        11.52082871059729    1.58984428656496   11.32603265160137
H        12.31543359850427    1.68285926538044   10.60099736615574
C        10.22880286036398    1.33342442817185   10.90044631602716
H        10.03659926527808    1.23861835478296    9.84418047226745
C         9.19372483468554    1.19292828890821   11.81160934059686
C        11.06869189439650    1.82735170210531   15.09380607624826
H        10.10915770304863    1.84767243578357   15.64062674337137
C        11.91797204928743    0.67215505008320   15.63407503771817
H        11.41440284195193   -0.28130573387051   15.48922511554414
H        12.09973663898064    0.80524403225897   16.69820346833450
H        12.87810631376660    0.63163061213400   15.12397459851540
C        11.76205551396289    3.16844669387155   15.34980706338906
H        12.73635720406297    3.20863720461098   14.86887868874721
H        11.90536796399906    3.30995322932146   16.41902034396928
H        11.14519671658321    3.98168813543171   14.97064539628689
C         7.76044377991584    0.93276518030192   11.39275323681860
H         7.33075211879442    0.19951911344289   12.08637523163825
C         7.63493324487990    0.36265949004084    9.98023651809359
H         7.89347374665260    1.10913238154135    9.23346697258946
H         6.60738958237563    0.05325306056435    9.80114307744616
H         8.27982114288397   -0.50377262446033    9.85166030089511
C         6.93700189993997    2.22424566296121   11.51103924242874
H         7.38615955330136    3.00597666001926   10.89982149123742
H         6.89067974598287    2.57218348450356   12.55794992778942
H         5.92310947573253    2.04711289482100   11.15436140168898
C         8.37684214130941    3.99553905458638   16.92631496622345
H         8.54556640765431    3.15659101127841   17.62302335563346
H         7.65122079257250    4.67232904627255   17.40760073423601
H         9.32350813333237    4.55097499062712   16.84678710092252
C         5.66921302305568    4.44287414829104   14.57247843751376
H         4.98689862749330    3.92304575501307   13.87749019927705
H         5.88247650019820    5.42862688911409   14.13163298227181
H         5.10632458162189    4.62942565898816   15.49947756690557
C         8.76548765733193    4.53749977422233   13.54819040459410
H         9.17140695795243    5.41927820509430   14.07409658673109
H         8.14091436406455    4.94670134388225   12.73593147802078
H         9.61908301825214    4.05480579698856   13.04960148892407

