106
CSD_code = SIHPUX | q = 0 | S = 0 | Stoichiometry = C47H34B2F15N3O4Ru | MND = 6
Ru        6.47363457784490    8.20912236124603    9.47375816785136
O         7.71938101639608    7.38805769477730   12.26540247119301
F        12.13186807407632   11.33795507116833   14.30085277531127
F         7.20507127403143    9.99150125937778   12.47478762077075
F         7.64983971901530   12.48778920230950   13.35628809244662
F        10.12812979506328   13.20122493373557   14.27199775796044
F        11.67518710663845    8.84498730378636   13.43044749385512
F        12.38343817785717    4.58199676589218   14.70847908045111
F         7.80307649107166    7.47988099020888   14.90224929828220
F         8.46716569433704    5.93339937719269   16.97722986476623
F        10.77505348208306    4.45533369220500   16.91688337338953
F        11.71383899284130    6.09556888688071   12.62331567759021
F        11.98981126272081    8.88165979388407    8.34876299270850
F        11.94043467877233    6.27103464909162    7.53417077507058
F        10.50887317384888    4.44007999405246    8.98913273826447
F         9.27168611990933    5.18788193947307   11.24995863922634
F        10.67126915129525    9.64826786090490   10.53920557645440
O         4.38120621479253    9.54949005343671    7.72123903997571
O         8.74623824750266    7.78517578388335    7.47446197638688
O         7.41962545602189   11.02709380077898    9.95108720908403
C         6.98293150676612    7.39231232755583   11.21526132843190
N         3.64739391418765    7.76636169562310   12.45891857257565
N         3.86246324862993    5.62367564227647   12.57140786812142
N         5.55983522035318    6.18364425627842    9.60511859746942
C         5.15489509739079    8.99548194431710    8.37004681166771
B         9.17986682768252    7.78271702324316   12.41135413725100
C         9.41815393318777    9.31999870679185   12.90860832510529
C        10.66061898268581    9.72106334775397   13.39316818929940
C        10.91848997289779   11.00921310618155   13.84451205325127
C         9.90358447761271   11.95923671595081   13.83176171875689
C         8.65014778899548   11.59413025151996   13.36348846917127
C         8.43496066730519   10.29591386283974   12.91464419210282
C         9.70169625724948    6.82647157539130   13.64865152916181
C        10.87537960015226    6.08087069285201   13.66759203817305
C        11.24967146467289    5.28966071850894   14.75067517357049
C        10.43884463529486    5.22496043246290   15.87621163521282
C         9.27029620934293    5.97395305172150   15.90249990588593
C         8.93418021595218    6.75837895123855   14.80620961995707
C         9.94885986487719    7.44045340766567   11.01011872507709
C        10.63966657478970    8.34665468659542   10.21621534002369
C        11.32214083930968    7.97040878269006    9.06141202031590
C        11.29875157030622    6.64654895708178    8.64221314473116
C        10.58294309484861    5.71847893184276    9.38855538600809
C         9.93757601510690    6.12865269295911   10.54559668511357
B         5.58281048284724    6.80077572414148   10.96937742876398
C         4.35808115541867    6.72875977200468   11.96870591886856
C         3.77253881951181    9.14911055666812   12.13552543674455
C         3.10601851628870    9.67142884785415   11.02958986241053
C         3.28881690013225   11.01605328077925   10.73242022128692
H         2.80299576703057   11.42368816805694    9.85815644577339
C         4.06391393202919   11.83697481635322   11.53547411063680
C         4.30434186303998   13.26882076224783   11.18203758947474
H         4.12594482300289   13.91344347929039   12.04006173175097
H         3.66959643084852   13.58522732178917   10.35882340338312
H         5.34512159088258   13.39537424423648   10.88633841641497
C         4.61278118690402   11.30825511419467   12.69787913044390
H         5.16840968288638   11.95643842904647   13.35672257103160
C         4.48264010662546    9.96849644630247   13.01622075559053
C         5.06439699620827    9.40310788902780   14.27445945197992
H         4.28055871659090    9.01682060196305   14.92637697705924
H         5.60789107590888   10.17104032548857   14.81555498997013
H         5.75294659894367    8.59093467690241   14.05245998755968
C         2.14452055735630    8.86474280574934   10.20578848385376
H         2.44079727474590    8.85702605418415    9.15924317083332
H         1.15817393373552    9.32560702009743   10.25793455616652
H         2.05441368802977    7.84013675579666   10.55989752943116
C         2.72290924340185    7.31755264258760   13.35848524496094
H         2.05170090545224    7.98520297913913   13.85771559864437
C         2.85393277717345    5.97362400781010   13.42796753762784
H         2.33244190767096    5.24371793389244   14.01125701848578
C         4.27836540070948    4.26904015258292   12.44732390272456
C         3.42676647570157    3.35788416180627   11.82098760230747
C         3.81269945045474    2.02580618807860   11.76228854981939
H         3.16169273709444    1.31628463498443   11.27344498727481
C         5.00238208233211    1.58884256616702   12.32584984664566
C         5.81184599680633    2.51464264336977   12.97184497992979
H         6.73159721790405    2.18429428521932   13.43001789895897
C         5.46972389658583    3.85651266409756   13.05149328051704
C         6.35722839447564    4.81697144475008   13.77279945998097
H         6.97716692707712    4.28453330501830   14.48907429555494
H         5.78606577497566    5.57595620824532   14.30319628503079
H         7.01769456032346    5.32434872834099   13.07181953604315
C         5.41729989268399    0.15530121227497   12.23706862983960
H         5.84858887318045   -0.17963039389950   13.17740194305722
H         6.17677609333113    0.04012300115035   11.46392725550053
H         4.57438695463292   -0.48262486121685   11.98556531040265
C         2.10311979008991    3.76812588685360   11.24413971248429
H         1.89619293491727    3.20359083114236   10.33768657871474
H         2.06222787612809    4.82938687438117   11.01144843378200
H         1.30616373471192    3.54771836153378   11.95515353353712
C         4.24565377445700    5.88342511750930    9.02583937840599
H         3.55459999116591    6.66617458182807    9.34740961609778
H         3.88297084364155    4.92429410546398    9.41331005173203
C         4.24402850237732    5.83790007791296    7.49933205966531
H         4.75251026491139    6.71380381115792    7.09624814631755
H         3.21891188568977    5.83908548466568    7.13673865824538
H         4.73459315270296    4.94574226376772    7.11991276514732
C         6.55720134893548    5.16089783703049    9.22195280924990
H         7.47557170549738    5.37532997180454    9.76742222956531
H         6.76950977622776    5.25094136056827    8.15100796251776
C         6.17505174076812    3.71220604748801    9.52123264611888
H         5.91759586643921    3.58788456309561   10.56626573679126
H         7.03972642137466    3.08826061838708    9.31007614828637
H         5.35295278045481    3.35960149421034    8.90411937131784
C         7.86044101704102    7.84225304854336    8.20241408342618
C         7.05362424580183    9.94478789047995    9.85266065840348

