53
CSD_code = SIHREH | q = 0 | S = 0 | Stoichiometry = C23H23O5PW | MND = 6
W         1.75274031850223    6.13749714182397   12.21882652760092
P         0.62043174042792    4.88871956714033   10.35849787949924
O        -0.77687311518081    7.91052061459126   12.76442190735673
O         0.89270580825492    4.00235966390168   14.35368022961168
O         4.56358772161732    4.76403065598442   12.23858839688023
O         2.88202133722769    8.14481071621893   10.08533964924109
O         3.07376937895516    7.78783280789010   14.51928253678423
C         0.82181143923761    5.45570368182649    8.64384265156620
C         1.56046023213780    4.44632859070138    7.80351224836696
H         2.60155681297576    4.76599044068533    7.69296676801394
H         1.13411481181823    4.41505624543208    6.79787761292790
C         1.50184066374017    3.05455130461901    8.44805654930768
H         0.81516585346438    2.42206195118791    7.88007838897023
C         1.06259147958988    3.13455807704250    9.93332846796765
H         0.17650640524102    2.52113302971812   10.13373088457354
C         2.27375495430700    2.58645134876471   10.69734626995000
H         2.29657242301891    2.88166298638199   11.74762965693180
C         3.43042932783562    3.06173106742412    9.82258779973735
H         4.39665692268508    2.67177936326534   10.13576546734841
H         3.47970000202426    4.14910151968660    9.74806823225627
C         2.88816532466176    2.40347763056729    8.55644379744978
H         3.48767984086696    2.51671553419046    7.65386795468154
C         2.71952098833399    0.94499268974330    8.99878662930135
H         3.65781024605899    0.40182471485810    8.88762055522243
H         1.96291613468276    0.42979289835173    8.40734535188708
C         2.32040704294495    1.06992420397643   10.48290250541792
H         1.36253183090069    0.59772137119696   10.69965678316835
H         3.07079446934166    0.61820950638102   11.13185777937988
C         0.42830134193457    6.64923367918051    8.18789889858419
C        -0.32673357816147    7.63133958493565    9.02284716352430
H        -0.49447909193856    7.24941283034166   10.02895099668022
H        -1.29456249570290    7.83984737387333    8.56515211112297
H         0.21859826704530    8.57318837843816    9.08674959339117
C         0.70156328585718    7.07630367592547    6.77360018507818
H         1.76960119115367    7.03800125357746    6.56132162797210
H         0.34941703994425    8.09024251205366    6.60445237734511
H         0.20154631351470    6.41558448819067    6.06412624139793
C        -1.19375737161189    4.69183950216197   10.49422471376450
C        -1.80300432405111    4.74746475249569   11.74151256267745
H        -1.20312385090068    4.93684396842167   12.62268443216671
C        -3.16932351510403    4.56201322992472   11.86141179795312
H        -3.63437757562151    4.60914594823779   12.83498654950548
C        -3.93743509264903    4.31974854148501   10.73541608118509
H        -5.00436448486373    4.18104388344353   10.82766517528169
C        -3.33466399234564    4.25445027859057    9.48905795171561
H        -3.93215625633653    4.06219824960570    8.60964628815230
C        -1.97010520681312    4.43559722349841    9.36727277275828
H        -1.49976861195410    4.38703584801933    8.39530716514548
C         0.10099278054591    7.22582554769196   12.50440945281261
C         1.15746047725668    4.78281129516313   13.56057331523727
C         3.50727907300630    5.18607104599377   12.12916299606486
C         2.43865335087988    7.43274759949306   10.86113014860302
C         2.59097193124073    7.18386998568179   13.67632992047387

