43
CSD_code = SIHREI | q = 0 | S = 0 | Stoichiometry = C20H13N2O7V | MND = 6
V         3.74213072375037    5.92707242243072    4.28200219067815
O         4.53783652245852    4.18251048600723    3.15855920457309
O         3.73199591146939    6.60643350806748    2.53999770519311
O         5.39244238316024    6.05415874938214    4.53433423995028
O         3.36253373101351    4.58364904914685    5.51130354229718
O         2.53183113571483    7.08263938235684    0.71590674575260
N         6.29409346486847    5.24157941482218    4.00091597099012
N         2.05751623629083    5.28473577359868    3.62875021924100
C         8.22706821170004    1.72460848854759    0.86833196102454
H         8.84216279889982    1.07244581922856    0.26697796406829
C         9.36384255369373    7.07845384409623    4.82618018545353
H         9.68696706117887    8.10373161682089    4.91908604031713
C         7.15566380180696    1.20600709790506    1.57695086323762
H         6.93228802710421    0.15121093980130    1.52770403165193
C        10.25194292813961    6.04305867934329    5.06746832824753
H        11.27175667745334    6.26011538069986    5.34557054083635
C         0.06447942904163    4.08845146030268    4.03060535543972
H        -0.49185750477249    3.41723219188720    4.66615252108765
C         6.36451351592904    2.04126552392362    2.34427914369727
H         5.52210786716035    1.65316726817473    2.89725698313098
C         8.50315274298743    3.08214106151851    0.91990890028446
H         9.32545998972381    3.48856222141471    0.35111151812263
C         1.58932992283440    5.75465073600360    2.48753915857029
C         9.82847921996811    4.72731722120885    4.96715756095791
H        10.51443948284297    3.92087523824387    5.17628885490023
C         7.72606727385707    3.92312614328431    1.69453597214004
H         7.93111865059533    4.98278486181967    1.71757950586123
C         0.30979773635805    5.43747628852068    2.05131603381312
H        -0.05179595224017    5.83631745545751    1.11636969708955
C         2.68125113922862    6.58455612546412    1.80527103704582
O         3.17869508852594    7.12031230005440    5.02649336269316
C         8.52250630594715    4.43562488135117    4.61660373755505
H         8.18656159923554    3.41174149648440    4.56356049304409
C         7.64571372825757    5.47976718778363    4.34482895608852
C        -0.46225464204624    4.60215189043514    2.85089804849209
H        -1.46505314587452    4.33910372847011    2.54719155666140
C         8.05748865788962    6.80268510025877    4.46586604960717
H         7.34421421930186    7.59507833581688    4.28153651683256
C         5.76737484119623    4.27259214680060    3.21606031424440
C         1.35399747886290    4.46239996846008    4.38513559654748
C         6.66005662631818    3.39981293986523    2.42348214973434
C         2.21432098719410    4.01759286168430    5.57257322292250
O         1.82846257297267    3.21360271305501    6.38635801992498

