33
CSD_code = SIHRIM | q = 0 | S = 0 | Stoichiometry = C14H9N2O7V | MND = 6
V        12.10315680306368    8.00700163400078    2.70385316156415
O        12.30958266863419    6.78750756056488    1.55039849258625
O        10.11446647564844    6.94026427461158    2.77734399341093
C        10.19854927590965    6.03252676585264    1.94807959040759
C         9.09651988209115    5.09598627920287    1.65603100391642
C         7.80436271626430    5.49322522376033    2.00064688242072
H         7.66431058904794    6.46180296842133    2.45647130910550
C         8.21773881162292    3.01513288248273    0.83528811076819
H         8.37709402442764    2.04447489629488    0.39078131811054
C         9.29830765600712    3.84356578225867    1.07588862876946
H        10.29305842056662    3.49675229316147    0.83963429340085
C         6.72941561907466    4.66171266263508    1.75117323660918
H         5.73204352385568    4.97789165537078    2.01547930692132
C         6.93452680550319    3.42309494785567    1.16515726979596
H         6.09641283126110    2.77129492209735    0.97081283975425
N        11.35882889065497    5.90388044101816    1.27019195080021
H        11.54455872650940    5.25892417552661    0.50561932665567
C        12.13589367387932    7.42647271282526    5.40767313710989
C        11.44899922089301    8.79480433382174    5.31911855205155
C        10.61855439208751   10.18684585653667    3.67550056777663
C        10.48588912375659   10.18738243704548    2.14753577758013
C        10.99144976235661    9.63115417974693    6.32871151166598
H        11.14936305167197    9.36100286900985    7.36124869132802
C        10.12485043824075   11.08336858736884    4.61395653890255
H         9.59581395742112   11.96482923365267    4.28649749312618
C        10.33440459886470   10.79966771407059    5.95904162413220
H         9.97118209997446   11.47817069677452    6.71717495698895
O        11.06294042785911    9.14843696161864    1.66657897156560
O         9.87459830437345   11.03930796031274    1.55070356852338
O        12.36830618065199    6.88408799141278    6.45956276189007
O        12.35229666892512    6.98043181983630    4.22491788658632
O        13.40905886972697    8.77494563956859    2.68867634524324
N        11.27266550917457    9.10185164128322    4.04705090053212

