75
CSD_code = SIHSOT | q = 1 | S = 0 | Stoichiometry = C39H32NP2Pt(1+) | MND = 4
Pt       10.62932701923467    3.57521955523591    3.70189218392936
P         8.53089769628372    3.22132005159190    2.91392176889639
P         9.63824191544210    3.13220309886073    5.80199415202878
C         8.33437414942020    1.44768721699852    2.62744961792155
C         7.10107384079200    0.83613238005005    2.42028445625338
H         6.19695467315377    1.42872521282166    2.39106868591483
C         7.03830984382297   -0.53530924365518    2.25088413806422
H         6.08414556912552   -1.01236177195270    2.08588712711141
C         8.19581990236741   -1.29764861043211    2.29423435221635
H         8.13835248332962   -2.36699827162418    2.16139343543551
C         9.42425926896368   -0.69274496655256    2.51015873545791
H        10.32234821339501   -1.29009404358631    2.54730695898901
C         9.49403081332363    0.67782683200932    2.67634111678328
H        10.45187974199366    1.17689440177784    2.83973747145243
C         7.77907566373710    4.13286525740413    1.54142954270035
C         7.83210279517687    5.52299143821411    1.62122941205563
H         8.31380962079771    5.98728611069035    2.47297952565402
C         7.29353485172311    6.29542667378479    0.61102393638597
H         7.33229753747409    7.37214189113004    0.67391279079840
C         6.70961597634699    5.68369490194511   -0.48817957871567
H         6.28974126461772    6.28595604204421   -1.27891407461853
C         6.67646267570835    4.30204216258385   -0.58071442374674
H         6.23481570372988    3.82878095504180   -1.44441570970942
C         7.21481754906923    3.52131081746684    0.42801222918067
H         7.20671680924838    2.44398725958848    0.34493723590089
C         7.34940872781217    3.56624309264360    4.29749977616434
H         7.33462634593060    4.64954935205982    4.45802835329258
H         6.34062278619448    3.25501099628359    4.00940675810744
C         7.81869976935671    2.84336617875242    5.55400369036902
H         7.68111653784248    1.76224632962619    5.44035642222323
H         7.25569838262095    3.17792798699781    6.43008512601116
C        10.07104903102128    1.84471841472401    7.00461114001729
C         9.26199185754977    1.51340650717136    8.08857676016503
H         8.32453667031055    2.02590501079165    8.24937129880452
C         9.65582712558761    0.51309018118378    8.95845433302502
H         9.02997976835210    0.25985557535315    9.80081601522571
C        10.84569955434230   -0.16723408763723    8.75060688177881
H        11.14667307942357   -0.94520017936846    9.43503429400239
C        11.64104895235315    0.14146095056102    7.65949932620236
H        12.55962153972868   -0.39860505578261    7.48731548187670
C        11.25293671217022    1.14174147885057    6.78718548182481
H        11.86031121210564    1.37676724307141    5.92090402808877
C         9.65047483216942    4.72931277167568    6.67256424012221
C         9.57350568177851    4.88748121773051    8.05079868099192
H         9.52008169657673    4.02299362272161    8.69644328613421
C         9.58306032894851    6.15998043360801    8.59601520132430
H         9.52354443494670    6.28243245390912    9.66677831732774
C         9.67194068994952    7.27298621508789    7.77587025351278
H         9.67834717223715    8.26136284217387    8.20864706960544
C         9.76816649953916    7.11938674459967    6.40119484679509
H         9.85413949417987    7.98620240448635    5.76345682685776
C         9.76422484080827    5.85186673439641    5.85242563998353
H         9.86817930883514    5.71696256712313    4.77153884938007
N        12.52908676294113    4.00350991077303    4.40331146863146
C        12.95222406897981    4.05940828254432    5.65487202314612
H        12.24034119504109    3.82515983643806    6.43855205836447
C        14.26039548466720    4.40267911838230    5.98993475144129
H        14.54731070656863    4.43066206428537    7.02860709871411
C        15.16511891728959    4.69244168036756    4.99257086807796
H        16.18724569892049    4.94924578536976    5.22631281807328
C        14.74158703882669    4.65376141965442    3.65715743184092
C        15.58015838233792    4.93395451301817    2.53994745982355
H        16.61051967561867    5.19205181764639    2.73167433029169
C        15.10081689673392    4.87446809243472    1.27235604843723
H        15.75011583441081    5.08206584576567    0.43470537329914
C        13.74060685946336    4.54558526904708    0.99837914692560
C        13.20696935823224    4.47152579784460   -0.29647477291778
H        13.84195486906069    4.67467751638841   -1.14547027651690
C        11.88718735650749    4.13442540839477   -0.47226489944758
H        11.47940520107387    4.06578073558383   -1.47003664149157
C        11.04593277141062    3.88018803397760    0.61879314075453
H        10.01446721780746    3.62099477822316    0.41770035621347
C        11.51296815199879    3.95990938934913    1.91423072724180
C        12.88080473934913    4.27583539032495    2.08313968065427
C        13.39406420181401    4.31251597994174    3.41055834292855

