89
CSD_code = SIHTIM | q = 0 | S = 0 | Stoichiometry = C25H55N4Si4Y | MND = 4
C         8.78588378370334   -0.13810284021447    3.94149761646828
C         8.02483792341648   -1.28255153046782    4.27157849169701
C         8.19571374678961   -2.61970814536189    3.98475707710902
C         9.26800899472418   -3.25156376101503    3.37726056412063
C         7.83386684159977    1.11819675166278    5.77348691654744
C         6.37724345077731    1.47029619824202    5.44708110546080
C         8.43734630419570    2.20711739268113    6.66662883589186
C        12.08178128398693    1.63722396986726    5.14975211126315
C        14.14181597567531    3.80021256249982    4.51679536408424
C        11.86877750177701    4.41038374305995    6.49193365642312
C         9.98739992689218    5.83111553288808    1.58604515148386
C        12.01802070006232    6.95821358801219    3.63206087072883
C        12.97318132074024    5.18195333667090    1.33051643592065
N         8.63389365809391    1.02786546253639    4.55709037055531
N        11.22562308124423    4.00064405932718    3.55465875191995
Y         9.26799853594424    2.90104282339647    3.37724766990866
Si       12.27856018371139    3.52068075309660    4.83841954529399
Si       11.55749088136190    5.40884044826288    2.60798114114948
H         7.13034242399976   -1.07155031825652    4.84001308486521
H         7.41037971296340   -3.27207852825315    4.34954596607537
H         9.26801258479978   -4.33301424665137    3.37726549257949
H         7.87680153265928    0.16614997208834    6.32591266375088
H         5.81253266764477    1.61967826404271    6.36474792855154
H         5.89870560820987    0.67856253064469    4.87570182965104
H         6.35117426492410    2.38400647035445    4.85274229878165
H         7.85182738409144    2.30696555297646    7.57897986096229
H         8.42869613404843    3.16508035091946    6.13446250108044
H         9.46092183223521    1.95165610695942    6.94020820495597
H        12.50777471396410    1.36464682513101    6.11049502301132
H        12.59790851723762    1.05521090459539    4.39364678054632
H        11.03777478960954    1.32601657311343    5.15033156446362
H        14.73618994405495    3.45488572550635    5.35648981490095
H        14.36013875389197    4.85143186010363    4.36980460182391
H        14.47992530824906    3.26629190093169    3.63501786289956
H        12.55194981649576    4.10723361799456    7.27928348769827
H        10.85951398483994    4.19709231933352    6.83315903921151
H        11.95571980045343    5.48571437031381    6.38106399186065
H         9.71654052102982    6.87232704177596    1.72539731886459
H         9.12505995494787    5.22997587518756    1.88531272219875
H        10.15070726455762    5.68753725147548    0.52188342880824
H        12.17273483764071    7.82116551716709    2.99204853828277
H        12.93397701198926    6.79454530537750    4.18892619844908
H        11.24237259214211    7.21266384486500    4.34638204575908
H        13.17349602388511    6.11824623036026    0.81884044339612
H        12.73291150771068    4.44282466569309    0.57295845660591
H        13.89214956103025    4.87107418895888    1.81287753752879
C         9.75011953961701   -0.13810328660846    2.81300556006065
C        10.51116825455828   -1.28255041300260    2.48292772049277
C        10.34029963437741   -2.61970656648373    2.76975868356223
N         9.90210649644669    1.02786436359128    2.19740960827279
C        10.70213352948736    1.11819434080965    0.98101342191792
C        12.15875701198441    1.47029360218670    1.30741869632066
H        12.72346665708101    1.61967861094933    0.38975169817365
H        12.63729619802124    0.67855914742558    1.87879566229397
H        12.18482582410786    2.38400232667994    1.90175973571317
C        10.09865592753539    2.20711430229823    0.08786946483853
H        10.68416615163714    2.30694856328199   -0.82448864520577
H        10.10732290097720    3.16508174204049    0.62002698101750
H         9.07507481518741    1.95166179377095   -0.18569673093639
H        10.65919835635337    0.16614723205299    0.42858861173751
N         7.31036975031479    4.00063482944148    3.19985316750406
Si        6.25743417965378    3.52067743904025    1.91608819624329
C         6.45421193401387    1.63722020606529    1.60475402078640
H         6.02822465690085    1.36464603708720    0.64400778130352
H         5.93807753422110    1.05520843592411    2.36085517608002
H         7.49821785858869    1.32601102646894    1.60418230450988
C         4.39417882424483    3.80021389319261    2.23770808654141
H         3.79980864289054    3.45490330039897    1.39800498031896
H         4.17586044819467    4.85143134211616    2.38471503121180
H         4.05606307703820    3.26628019437657    3.11947460468238
C         6.66722111857467    4.41037832123733    0.26257344884281
H         5.98403732861691    4.10724020372559   -0.52477048684058
H         7.67647770279281    4.19707023218257   -0.07866095073211
H         6.58029740759553    5.48570986342926    0.37344432727364
Si        6.97850872614352    5.40883936218845    4.14652065374834
C         8.54859987287807    5.83111395094284    5.16847286656193
H         8.81946064703108    6.87232977324582    5.02909483681259
H         9.41093310282413    5.22994939075359    4.86919865724732
H         8.38527603387390    5.68754562772020    6.23264223261094
C         6.51799071979617    6.95821277036719    3.12243565677421
H         6.36327972153635    7.82116704140819    3.76244581756547
H         5.60203431874197    6.79454807588706    2.56556933578193
H         7.29364062679593    7.21265871609425    2.40811508949005
C         5.56281047782447    5.18196476109656    5.42397815655020
H         5.36249782500087    6.11825845578521    5.93565380841762
H         5.80307183839409    4.44283459780839    6.18153755338799
H         4.64384328843190    4.87109008962277    4.94161261793932
H        11.12563694768436   -3.27207492335597    2.40497332555917
H        11.40566094801849   -1.07154929104700    1.91448887206154

