31
CSD_code = SIHTOT | q = 0 | S = 0 | Stoichiometry = C9H14BCrO5P | MND = 6
Cr        7.16842323487791   -2.84075910845526    8.16737909076025
P         6.49138343577608    1.12030317422816    7.97399598570867
O         9.61227612642618   -4.18026353371485    7.02694741846962
O         8.26564636559140   -3.06646959222812   10.96080843970994
O         4.48643008358896   -2.29927969619376    9.39988877432526
O         5.70626628568888   -3.15495393814076    5.55846625645654
O         6.19433296823476   -5.62358315177690    8.64600157453356
C         8.74007785280986   -3.55730467888517    7.43565103940488
C         7.91091362201326   -2.88067439006874    9.88375039185010
C         5.53722723458850   -2.38017016650887    8.92265905161313
C         6.31857451722433   -2.94282970124774    6.51045126178119
C         6.59228879309837   -4.55734028312405    8.45733815294510
C         9.15515180398090    0.50112597177037    8.95500008778089
H         9.41168658690584    1.56103602700401    8.95480485436456
H        10.09128745417907   -0.04385249057737    8.85605256561990
H         8.75740203679302    0.26274709239219    9.94115405766132
C         6.66596402410362    2.90105835800778    7.58554659574149
H         7.00308184638944    3.00777068591349    6.55677319240061
H         7.41495599126143    3.33789172927826    8.24231898122325
H         5.72063862753836    3.42511055480677    7.71584851128555
C         5.75671956959056    1.13306663060761    9.64842587727586
H         4.82096868254275    1.68888933640025    9.65786364056122
H         6.45844536991158    1.59441934348009   10.34027140731406
H         5.57372761594563    0.10930518840994    9.96792495676341
C         5.11807624816177    0.58754737279915    6.88947565097536
H         4.25730815754489    1.24557137780489    6.99544030235225
H         4.83321480596563   -0.43089656680896    7.14926958360716
H         5.45829117874837    0.59841600559392    5.85567066408733
B         8.13014764378111    0.11077791972854    7.76028076905333
H         7.77788804170963   -1.09784053997971    7.84988512316059
H         8.52750379503100    0.35188106948708    6.66515574121591

