75
CSD_code = SIHTOV | q = 1 | S = 0 | Stoichiometry = C27H39BCoN6O(1+) | MND = 4
Co        9.18326829772913    8.84317748830322    9.94440079955822
O        10.05915353358943    7.45893146221772   10.52914187451195
H         9.86905958806390    6.88590230506931   11.27304265122874
N         6.48595806228323    8.84902623051219   10.46432355315265
N         6.89809828780853    6.96826094250959    9.45561907003965
N         7.34396684677150   10.97819345442338    9.60736277235948
N         8.84921357946932   11.17554437109250    8.06184653929530
N         7.85114658027875   10.38220865032485   11.86512750670225
N         9.94256520816615   10.28709657744806   12.45950251936832
C         7.44176171125126    8.13406588787472    9.86731875567922
C         5.32990452350111    8.13047518723869   10.46947750182819
H         4.42714919292476    8.50482406202341   10.90404078433456
C         5.58294018605010    6.95519294803511    9.84824562166969
H         4.92784457613971    6.13208269428318    9.66487780454223
C         7.50921627857592    5.88519895357166    8.67037794776203
C         8.16955261250655    4.88378421881053    9.62092318493806
H         9.04991971031865    5.32004074943598   10.08232766284629
H         8.47577641024585    3.99996728592002    9.06874913011566
H         7.47395270616806    4.57999360870085   10.39993563651034
C         6.42982225147477    5.17653399155527    7.84532977170400
H         5.79758691457999    4.54602270976542    8.46411171268686
H         6.91080081676742    4.53503719316294    7.11193565478206
H         5.80968161249651    5.89400729787868    7.31276493879926
C         8.53746272590298    6.48423454318461    7.71314446730492
H         8.05362640307427    7.18413772804983    7.03457615300967
H         8.99889450618945    5.69394828223585    7.12774401900021
H         9.32568870235964    6.99307182813760    8.26713752801878
C         9.04805354813384    9.88586299662526   11.52793827998085
C         7.97711221746105   11.10178405395613   13.01236760095809
H         7.15855467815535   11.62464749920550   13.45867189271116
C         9.27338919223102   11.03309491873178   13.39573970468535
H         9.74523980822604   11.45886567697226   14.25350142344850
C        11.39310539024467   10.04546324376348   12.51245787784593
C        11.65282833945426    8.65386658868539   13.09428543870880
H        11.10189434313050    8.51966893652116   14.02243736675106
H        12.71215987849535    8.53426613080065   13.30239406134450
H        11.35442198088145    7.88490004228707   12.38945276076601
C        12.06876128373982   11.09861498541341   13.39588615174422
H        11.77084989519715   12.10480566514221   13.10972338072887
H        13.14555679456469   11.01891955943041   13.27271566106488
H        11.84904835729315   10.94180650301448   14.44837682735691
C        11.96620538929402   10.16467724811101   11.10132195135388
H        11.48816894510312    9.44951650232487   10.42984413603955
H        13.03066746634318    9.94829365720866   11.11495289626117
H        11.81980893487449   11.17513059575090   10.72494194571625
C         8.43402003934977   10.38946052994371    9.08106057509551
C         7.10237164249502   12.15060963443231    8.96108652736828
H         6.31707226469575   12.81886807486574    9.24259426489958
C         8.03562354144175   12.27723847033741    7.98838167266158
H         8.17035926692298   13.05715636451553    7.27030197229787
C         9.99949763101995   10.99185021676951    7.17473972657446
C        10.48835170616165    9.54601130013866    7.22747967852285
H        10.64231626552224    9.20978490388779    8.26199177992643
H        11.44147186526765    9.46332448652690    6.71197640443058
H         9.77611783304006    8.88861292411742    6.73595024748814
C        11.10916492473459   11.94795448208907    7.62326834470222
H        10.74675088624278   12.97265442474113    7.65147554246064
H        11.94420817153083   11.89982711711234    6.93035657416337
H        11.46556258299036   11.68039440457962    8.61437509317475
C         9.58217977605447   11.30808177904181    5.73314070094320
H         8.65855630060669   10.79247310126520    5.47963561535437
H        10.35902917974084   10.97563407161855    5.05033064399557
H         9.44051164474611   12.37346650017136    5.57832343199855
C         5.27500509730849   10.91356591013473   11.35469157004843
C         4.85632205511587   10.71778477014077   12.67278406143830
H         5.50130099980502   10.19516535645263   13.36438172748165
C         3.61610563200280   11.14214039731417   13.11577536030966
H         3.32971528202168   10.98083621277198   14.14449480893938
C         2.74025205267372   11.76152461460006   12.24144910976328
H         1.77487889746045   12.10064375434061   12.58439206833629
C         3.10566170776588   11.91374172359889   10.91590094928573
H         2.41771353925807   12.36015515726939   10.21327685932426
C         4.34849695582798   11.48520003168258   10.48241611759335
H         4.58553558724385   11.57400338449393    9.43270618569106
B         6.67900840344188   10.33369044533947   10.85236746651457

