59
CSD_code = SIHYOY | q = 0 | S = 0 | Stoichiometry = C34H20Cl2N2Pd | MND = 4
Pd        7.27301413021285    5.06639553936773   19.24656335783356
Cl        6.25639639918737    3.23024000817980   18.32167672748800
Cl        8.25376421298312    6.86142691809249   20.28229540184649
N         8.92671724806633    4.08667079686723   19.48829063139349
N         5.59503795615712    6.01875546759306   19.06181200971056
C         9.33978980905406    3.64679502570508   20.67140920430413
H         8.67091044538381    3.81986168859135   21.51267524211575
C        10.55831272674956    3.01050378963435   20.83252516640932
H        10.86130275036584    2.66432665205405   21.80750293890939
C        11.37737509282282    2.83380667806264   19.72431159800554
H        12.33577018323368    2.34716576127784   19.82305907150538
C        10.94639772585571    3.28748259337959   18.49129611601726
H        11.54455998778612    3.16971634859604   17.60143782697676
C         9.70181579018269    3.90904486848701   18.40668062050972
C         9.14486945703223    4.37211022180651   17.18900466047751
C         8.63289958169614    4.71010638359553   16.14387945713258
C         8.02500764601082    5.08337745798148   14.92500302910355
C         7.07394715876288    4.21215299697481   14.35041392953311
H         6.83208679910436    3.29910870118302   14.87237879731683
C         6.47794784577285    4.54021660250683   13.16953367995102
H         5.75314681465310    3.87712235930486   12.71999872002077
C         6.78219450384312    5.75457591986418   12.51542179263574
C         7.72263541570956    6.64606228308096   13.09896273303799
C         8.35833548218582    6.28077098187962   14.31146045565055
C         6.16258110040888    6.11399492649825   11.30109428360911
H         5.45528053099969    5.42619932545157   10.85990779272459
C         6.44385242703907    7.30653118797464   10.69561001220396
H         5.96521968148836    7.57316292026326    9.76481640986411
C         7.35111946401781    8.19948060635083   11.28602408498444
H         7.55294115228643    9.14547522638563   10.80546272840803
C         7.97375330430750    7.88035206533638   12.45981103709417
H         8.66660832643516    8.57336651287968   12.91348627958632
C         4.53177926336037    5.76221293615890   19.81501071947596
H         4.66490145011008    5.02582868774689   20.60563067962894
C         3.31543137164782    6.38799876214680   19.60386514817706
H         2.47320895811888    6.15716930625332   20.23600338913633
C         3.20131905062184    7.30534917579415   18.56676023115081
H         2.26201633657944    7.80121761433547   18.37463455610254
C         4.30914739828987    7.57729446769211   17.78521163832435
H         4.27104548266258    8.28471216008240   16.97180921083537
C         5.50298905625050    6.91590825633707   18.06711320512206
C         6.71057722809993    7.15042849072951   17.36429981483759
C         7.77051185164728    7.38580274011316   16.82590677881724
C         9.01445858807124    7.67947647669119   16.22536351369390
C         9.92195730383820    8.50240564138560   16.92770919652909
H         9.63798156778912    8.86363023945816   17.90415385559038
C        11.12838828592929    8.81018663834529   16.37371453747560
H        11.82689399162111    9.44318886725592   16.90141530198624
C        11.49821616109599    8.29984919046821   15.10960757519836
C        10.59869366517897    7.45286396533974   14.40730133333612
C         9.33452673674605    7.16486384270556   14.97893892969291
C        12.74937902103029    8.59668708880802   14.53156916074646
H        13.42338318462903    9.24903412584196   15.06835029425079
C        13.10711438794895    8.06887905162716   13.32272108844695
H        14.06737323262791    8.30252961800123   12.88698163403603
C        12.23102105405606    7.20928959961390   12.64258017978784
H        12.53216830579616    6.78601236070235   11.69561763988172
C        11.00806706280600    6.90555683654908   13.17122524520349
H        10.33975885370054    6.23876504462082   12.64689934616348

