97
CSD_code = SIHZOB | q = 0 | S = 0 | Stoichiometry = C37H56NO2Y | MND = 9
C         5.98251416540498   10.98240481293245   10.04570045479821
C         4.85930559622118   11.46251501042844    9.39674064691911
C         4.43356756295293   12.68696644201508   10.06856103041317
C         5.43705006483521   12.93761297741150   11.09422297317628
C         6.33793509064678   11.88865233127335   11.09034902065419
C         6.77339923929513    9.76385364236113    9.68493461175087
H         6.17638877720628    9.07154200796833    9.09419388427237
H         7.13419005268781    9.24642150782482   10.57398740893488
H         7.64706418283205   10.03933218416993    9.09013278728146
C         4.29023589832249   10.94341530990312    8.10655266469407
H         3.26561060156310   11.27816408002232    7.95229737122616
H         4.30500160173387    9.85349952032105    8.07416809989353
H         4.88897078969570   11.30197979064419    7.26545009706888
C         3.81887903530992   13.84595287203404    9.29567356865855
H         4.59427336243563   14.31644110656133    8.68277056547367
H         3.41670131555031   14.60930820369934    9.96299520491571
H         3.02639809483429   13.51799491694355    8.62277636298557
C         5.50688385476876   14.21619773312679   11.87971432769702
H         5.79820476895914   15.04217072595889   11.22569368564559
H         6.24688608516625   14.15061150995933   12.67425987465476
H         4.54296487302447   14.46389684150154   12.32815107451334
C         7.52280493743394   11.68861981786540   11.98213784168997
H         8.43660005821813   11.62469820403097   11.39013567473673
H         7.43493329939313   10.76192732238497   12.55347797289026
H         7.63282968292152   12.51006639584347   12.68541650472006
C         3.28140196348379   11.34628374342066   14.77903348625298
C         4.13158377597607   11.82381605123363   15.82173807402649
C         3.73180168434197   11.73414129011894   17.14073861817530
H         4.39382690563195   12.07422002620235   17.92259654200168
C         2.49659228342147   11.22165474831917   17.49379525342798
H         2.20015582280788   11.16611987257808   18.53057973348965
C         1.65227621160947   10.78002749803874   16.49406191051003
H         0.68623449610481   10.37916796549425   16.76678757745452
C         2.01507089853364   10.82220624681860   15.15938932489399
C         5.49802703526946   12.40064587545824   15.50556115484937
H         5.48673371472628   12.80287331450501   14.48666067253698
C         6.55407348365477   11.29286428826351   15.58126378507186
H         6.30662359531692   10.48218052000723   14.89828284583407
H         6.59356532809048   10.88565365239475   16.58969875083451
H         7.53923381747977   11.67827531756654   15.32395660804937
C         5.88910511207414   13.56627389469887   16.41701620358598
H         6.76841641189083   14.06771474397600   16.01529936529145
H         6.13330799366647   13.22571489848939   17.41987559191911
H         5.07847717129830   14.28924374554573   16.48274556194785
C         1.02270501188156   10.29235679293831   14.14340369397002
H         1.47778888990208   10.32651363221735   13.13339662669682
C         0.65695978629848    8.83104005729371   14.41807094783186
H         0.01918989547257    8.45248491220860   13.62138789672797
H         0.12147655849568    8.73196266616103   15.35898087288219
H         1.55493151895753    8.21838845870070   14.47151129515331
C        -0.23409027109397   11.16736276543103   14.11617180147903
H         0.01182469767294   12.15951678103587   13.74258807649747
H        -0.65490731141457   11.26616674902721   15.11475744041522
H        -0.98937902987680   10.73245140394988   13.46700758331276
C         1.01242914020440   11.34781833841298    9.97058272287799
H         0.87560348561122   12.26412531273058    9.37733855005448
H         1.30728048216606   10.55414610122573    9.26725709266661
C        -0.29637286539705   10.97176992921781   10.54677100557815
C        -0.60053553957538    9.63490983815253   10.83684921381861
H         0.15085601279476    8.87596391198094   10.65220488661111
C        -1.83312151453996    9.26861209008730   11.33734355643889
H        -2.04162525365993    8.22746398121445   11.54436452066555
C        -2.81058116279086   10.22513277122601   11.56789922316966
H        -3.77591265922547    9.93816818578330   11.95755867197888
C        -2.53416668534451   11.55241319062948   11.28211250457908
H        -3.29193249992279   12.30670705699702   11.44497226562477
C        -1.30267381500756   11.91772281165461   10.77534892292468
H        -1.11591643098865   12.95735552763879   10.53495544970789
C         1.97361065536495   14.40327230299081   13.90164290976151
H         2.75978651916589   15.16875325952581   13.96308499379949
H         2.25161820055618   13.55317314302046   14.52547575826782
C         0.60617969857466   15.00950703119249   14.26618238000392
H         0.06002652446334   14.36168698924614   14.94832294427418
H         0.73184873626063   15.97939282268821   14.74407272636338
C        -0.11271794677512   15.13253402526735   12.91310260681752
H        -0.87281815757210   14.35830666334505   12.80985956335617
H        -0.58002531862695   16.10396980562834   12.77069866538314
C         1.01598173564569   14.88629473531048   11.91089248609921
H         0.68412538512613   14.45618256140033   10.96566185116500
H         1.56901086449796   15.81781407588789   11.71750588746938
C         4.41541173964441    8.51725526193447   12.40803029432399
H         4.06504712914169    8.78382281792159   13.40898018153474
H         5.36140311059145    9.03307784736429   12.21127316523685
C         4.54944108215690    7.01020666405764   12.20105756927011
H         5.54888973657735    6.65227013569814   12.43528415984476
H         3.82899802089445    6.47294606590670   12.81905998061257
C         4.19106537504866    6.86352882539970   10.72513770822434
H         5.04328676930839    7.13354412499131   10.10168125947161
H         3.85537927158302    5.86384432213925   10.46033487753136
C         3.08612843564951    7.90430909335812   10.59052231495034
H         2.97192663634833    8.29191631240102    9.57546708497230
H         2.12650928270932    7.48724679173394   10.92830102960259
N         3.66578150584967   11.36743464229728   13.47057830513223
Y         2.78733152378141   11.58827694710073   11.49491667230294
O         1.87189115180004   13.94713763368458   12.55102199477905
O         3.45458975670370    8.98835910205425   11.44568351110089
H         4.65486143810411   11.61335977021780   13.42255752687279

