40
CSD_code = SIJGUP | q = 0 | S = 0 | Stoichiometry = C17H13Cl2N5O2Ru | MND = 6
Ru        6.13517475480465   22.50730536942641    0.56022756432342
Cl        5.21616870795655   23.25734193067655   -1.50416126299337
Cl        6.98201572290160   22.11232751581724    2.75692428779154
O         7.00374959314889   26.42966021279398    1.01335749006885
O         6.39664231641193   19.79713640636367   -0.20709152714185
N         7.95815740454679   23.16863473486737   -0.05582865204105
N         6.01495660308253   24.34180207552102    1.12628137631178
N         4.84391822319319   24.71015601791763    1.75862164381473
N         4.25032679637788   22.52249547180252    1.34609309930656
N         6.27014908935749   20.90592621637368    0.09060755574112
C         8.10271841078447   24.48624135522570    0.14245971251294
C         6.97094453052803   25.22388768056151    0.81229434098313
C         4.73440732685610   25.96373707737321    2.42613106038308
C         5.51817152583602   26.19900750171594    3.54714889845237
H         6.20019520845262   25.43540990979125    3.89171969572370
C         5.42242083336790   27.41648495536818    4.19495224122521
H         6.03583977260706   27.61048042972273    5.06154155870307
C         4.54488918157380   28.38316436626967    3.73255062742266
H         4.47553588125270   29.33378290088773    4.23963193918645
C         3.76259915182600   28.13848775867916    2.61638233346350
H         3.08568965951510   28.89637546095656    2.25191050895113
C         3.85498722030886   26.92710714258398    1.95455139963348
H         3.26598715352679   26.72918411704093    1.07148633786391
C         3.92913803462012   23.72746454180522    1.87584525019113
C         2.68903212124219   23.91924986602805    2.52211629221831
H         2.46958333231462   24.88059228900471    2.95665775373807
C         1.80128271803944   22.87887293026252    2.58418418623260
H         0.84834613108027   23.00646667495044    3.07361762378933
C         2.14020356464150   21.64912680342349    2.01036642016156
H         1.46173825582550   20.81400968858124    2.04036337582367
C         3.37033033098066   21.52069077245662    1.41108082271209
H         3.67783826182237   20.58284444956084    0.96385281134173
C         9.24889359601227   25.16772228285561   -0.24414798667659
H         9.29301777470950   26.22936406321275   -0.05609536475950
C        10.27613358948756   24.46642088592846   -0.84967892405348
H        11.17861984237694   24.96881238301245   -1.16179989646592
C        10.11874230172006   23.10222050306279   -1.04534896457883
H        10.89127179211536   22.51144401029152   -1.51052380111388
C         8.94396595252784   22.49240044437419   -0.63589343625627
H         8.79531733226866   21.42806080345569   -0.77858839199040

