57
CSD_code = SIJGOI | q = 0 | S = 0 | Stoichiometry = C20H20N6NiO8S2 | MND = 6
Ni        0.00004302657893   -0.00009866852845   -0.00001873478220
N         0.66034999465908   -1.76568308996589    0.22718650753217
N         0.89634531458078   -2.54989611738583   -0.82406378791245
H         0.60476058289238   -2.26713660209952   -1.76597076096153
C         1.42653673112957   -3.71551740188104   -0.44470778576523
H         1.68002530775964   -4.47705172297791   -1.15384086282483
C         1.55199264252827   -3.68335257977797    0.92843093283248
H         1.94225600998648   -4.44414303601820    1.57163674466198
C         1.05567110030244   -2.43498966122487    1.30471118900009
H         0.99972511421318   -2.00933545091068    2.28764628308316
N         1.56106762114338    0.73532068343013    1.05141722940675
C         2.74802443201841    1.12894762923265    0.58069670060942
O         3.06807238545794    1.20445477645086   -0.60295758596889
C         3.71267674007031    1.49097919862043    1.66368365153661
C         5.03497119993808    1.86809665165198    1.49152708660310
H         5.44994876384388    1.93324384414722    0.49789579285605
C         5.78728549714214    2.14998911561616    2.62213123360480
H         6.82100399946040    2.44334758770393    2.51587168033199
C         5.23052947903155    2.05986910991180    3.89050017911987
H         5.83495183336568    2.28303658930618    4.75667532011581
C         3.90199569143179    1.68592816031863    4.06023871848384
H         3.45465370473178    1.61432932865656    5.03870787483002
C         3.16971659969601    1.40404968968073    2.93055074177283
S         1.46563346890256    0.92979188709504    2.69248058244788
O         1.16267654306194   -0.28871568371570    3.39534542583804
O         0.61980934966795    2.05493665369862    3.01883367796675
O        -1.26527962268318    0.07874886042055    2.04981829100012
H        -2.02901677681985   -0.44025328310125    1.70483679708013
H        -0.84843918482651   -0.43392871916411    2.74790050704389
N        -0.66023988180977    1.76547407623243   -0.22721503707804
N        -0.89644462041588    2.54958541638492    0.82406370873399
H        -0.60500307756035    2.26674428152047    1.76599036827244
C        -1.42651857875656    3.71526114013737    0.44470874564199
H        -1.68013717584180    4.47673410524898    1.15386217972571
C        -1.55169574437580    3.68322637865626   -0.92845798543078
H        -1.94181072310758    4.44408557906017   -1.57167091731291
C        -1.05531589642428    2.43489182674922   -1.30475708143345
H        -0.99919278310397    2.00932270562706   -2.28771859110962
N        -1.56105687394527   -0.73547970158989   -1.05138870898770
C        -2.74808536429928   -1.12891381360234   -0.58067864543363
O        -3.06818273477457   -1.20431314410866    0.60296782269200
C        -3.71278299946702   -1.49079519147746   -1.66367550232547
C        -5.03514341227329   -1.86768802484239   -1.49153113323284
H        -5.45013605006981   -1.93279407413449   -0.49789816914246
C        -5.78748327711212   -2.14949547535948   -2.62213841748047
H        -6.82124682991409   -2.44270892125484   -2.51588577044815
C        -5.23068956490790   -2.05950682551532   -3.89049795492642
H        -5.83514119678842   -2.28257342302378   -4.75667873756690
C        -3.90209510221650   -1.68577085705519   -4.06022704436360
H        -3.45473333213974   -1.61423671879864   -5.03869510579979
C        -3.16978808617641   -1.40398383182339   -2.93053497047369
S        -1.46564643150322   -0.92994419450191   -2.69244915833921
O        -1.16253349590911    0.28853292277642   -3.39530159886521
O        -0.61994059462505   -2.05518039760189   -3.01879963166048
O         1.26546486785651   -0.07906257316973   -2.04979781716743
H         2.02907143868453    0.44014088281046   -1.70483903573888
H         0.84851997171785    0.43348010346742   -2.74791944029249

