83
CSD_code = SIJHIC | q = 0 | S = 0 | Stoichiometry = C34H42CrO5Si | MND = 9
C         3.64419969562441   13.91844593721937    1.28892669813998
C         2.77502582966542   13.10518638880943    0.28228267390361
C         1.69068894000671   12.41436115821807    1.05095013702714
C         1.86799467152475   11.13620085781304    1.56480721438602
C         0.98676583889539   10.63274255933025    2.50624013550311
C        -0.00402736490135   11.44305498431423    3.03561154654446
C        -0.20171314512543   12.72240791532029    2.53551575066620
C         0.59139058760410   13.15303981813472    1.47680748433886
C        -1.05246375918632   13.72560193515363    3.25490365414839
C        -0.15302053748454   14.54832178143375    4.22409707327998
C         0.90091351542488   15.26797049732558    3.43970741305533
C         0.68451281591402   16.52307719248374    2.92981226165462
C         1.55924922480949   17.08852166100064    1.98484435351475
C         2.55173065526211   16.25630220247339    1.36668313125118
C         2.79607744700281   14.97584881358106    1.93129971806880
C         2.04202266948397   14.56947083007355    3.01724854235490
C         1.35103829506771   18.45021453303138    1.54947794188904
C         1.84710716422835   18.87702496262352    0.30893303972941
C         2.76007221679416   18.00839647093921   -0.34586835783172
C         3.19223239390080   16.79779095671195    0.19066974508928
O         0.46860110237343   19.20098465204022    2.25936632640381
Si        0.50956539428880   19.84823557280053    3.78168199700234
C         1.65502699110655   21.37116272926263    3.85499595008535
C         1.10089379345917   18.65073588137274    5.14627819116200
C        -1.34144842372045   20.32384389740535    4.02465718448941
C        -2.25523941870664   19.10153906114429    3.90290287759776
C        -1.50609744569935   20.92049388112369    5.42186159389969
C        -1.79356397101126   21.36452535720556    2.99780755972670
C         1.31191005214507   20.11274843955556   -0.41285137259019
C         1.48422466155293   21.37719404991832    0.43398353516134
C        -0.18160016501211   19.86889453474714   -0.68587190355989
C         2.01384506257350   20.36422310102190   -1.75314648304592
O         4.09641578289406   16.01298705410445   -0.47170083800165
C         5.02535307039767   16.64109463488131   -1.32904605996270
Cr        3.64054548264076   18.42656463314994    1.66118590588814
C         5.30745912823448   17.76208318186336    1.94187310886314
O         6.39679526050274   17.41209132106195    2.11894693888474
C         3.97969439548985   19.05514510956001    3.33875645398499
O         4.36411972612040   19.44347004455599    4.36081312070945
C         4.60624599042639   19.89071586568849    1.20307572960029
O         5.30074922722145   20.78896542806453    0.96228889781816
H         4.00594747026610   13.23314560935436    2.05778808966956
H         4.49718003801912   14.33624824351877    0.76389219176310
H         2.36364483345014   13.79143166014927   -0.45896731814069
H         3.41665286120455   12.38388265091095   -0.22462436786996
H         2.70863572500471   10.54001229856225    1.23981634542044
H         1.11586450210950    9.62760113359425    2.88037588252371
H        -0.61549325289913   11.08477248792856    3.85143318865667
H         0.38745344569513   14.11136595869751    1.01972495155268
H        -1.83125344980540   13.23197079131344    3.83790599433024
H        -1.52304077759146   14.41191132419040    2.54851379441810
H        -0.78273204402139   15.25620931892098    4.76515338841170
H         0.30510392536569   13.86382570081013    4.93972233327834
H        -0.19337658145793   17.08250738235637    3.21011022836497
H         2.27698668005830   13.62759747286019    3.49014205666339
H         3.12122977248290   18.27772403008667   -1.32602991920873
H         1.19175417752696   22.27488440494204    3.47147055472193
H         2.56645923938791   21.20054688693275    3.28759308886545
H         1.95092889195399   21.57329204649242    4.87888640960266
H         0.35365202652027   17.91972251016034    5.43964918541168
H         1.37290820033871   19.20677985613793    6.03760385721686
H         1.98584496463984   18.10535894793930    4.82974014517384
H        -2.00677988322878   18.35321057630505    4.65252264189540
H        -2.16640111732850   18.65196030577858    2.91628574422155
H        -3.29583913084166   19.39010032065113    4.04966734169093
H        -1.22733844148093   20.20011998210096    6.18609040848407
H        -2.54117761510803   21.21487291104399    5.59200798521722
H        -0.87849788587271   21.79959884772327    5.53956602273887
H        -1.20805043906172   22.27622196996238    3.08469753540694
H        -2.84106644691634   21.62060018388336    3.15589822619955
H        -1.68811473919351   20.98182633821586    1.98614251114876
H         2.52491986235849   21.49344624168774    0.72904655000358
H         0.86669156614299   21.33558346519484    1.32116795030798
H         1.18910814167558   22.24889366283382   -0.14624171609136
H        -0.71651377141453   19.70037339909732    0.24448795820186
H        -0.31652097768043   18.99712171803792   -1.32473733633593
H        -0.61668872148005   20.73203455838706   -1.18431118410860
H         3.08148918464109   20.51958619611587   -1.61022653534666
H         1.60337462288666   21.26647410942882   -2.20127492852117
H         1.85101790561248   19.55080659642691   -2.45778021682608
H         5.80882153023107   15.90430313687902   -1.50067557110506
H         5.45567957162928   17.53036215931754   -0.85473324022809
H         4.57774328363951   16.90933271900915   -2.29150909684887

