133
CSD_code = SIJJEC | q = 0 | S = 0 | Stoichiometry = C58H62Cl2N8O2Ti | MND = 6
C         0.46559476153033    6.65202701081168    7.87166853913531
C         1.30424916616090    8.69489505333402    8.88208341176122
C         0.82902586088171    8.55221678449281   10.18759988938320
H         0.36455883772510    7.62497260421476   10.48501135423062
C         0.96075052505078    9.59444742702283   11.08634574318130
H         0.58999701765228    9.46634501569598   12.09467108731976
C         1.55502746989060   10.79558276442934   10.72352743315495
C         2.02412249475762   10.93290241224615    9.41970254084244
H         2.48670139331078   11.86328100603056    9.11943365748405
C         1.90765750721298    9.90286676635039    8.51140322834513
H         2.27111345997472    9.99982604251080    7.49454339093149
C         1.68613655000167   11.92946445836531   11.69800039599928
H         1.40301066900082   11.61618669992289   12.69977962038356
H         1.04209094587710   12.75749667527988   11.40313118677586
H         2.70986763273952   12.30009909634076   11.72330704179097
C        -1.44907036928343    5.49740973596735    8.53214036125667
C        -3.07653754473120    4.21927195413224    7.73480618488440
H        -3.69915475413288    3.76925364637658    6.98933752556549
C        -3.10906374451497    4.12595977034705    9.08057759489453
H        -3.74662554704597    3.55979485917297    9.72730156306532
C        -1.70622823638449    5.47373312109177    6.07236049499933
C        -1.96737580598109    6.78505676707753    5.67420556015002
C        -1.53751987663956    7.18608023773723    4.41971060391461
H        -1.70643181352970    8.20510857304353    4.10555269516762
C        -0.84241452442872    6.32391753568247    3.58082125571016
C        -0.61367133324947    5.02036481148845    3.99768516756891
H        -0.05626098772736    4.34827333195204    3.36181429043339
C        -1.03799941709764    4.57439924353273    5.23984550694389
C        -2.66164854365621    7.74736628186614    6.59346342816209
H        -1.97007251017334    8.09306902854245    7.36438562517281
H        -3.51481307758596    7.27983836366070    7.08665653566979
H        -3.00749443585488    8.61471409085105    6.03746288047509
C        -0.31160281009266    6.82919200329120    2.27768756054612
H         0.13390364037191    6.02596383715865    1.69759239138401
H         0.45003886571472    7.57861350197526    2.49165029111262
H        -1.09995319562705    7.30194304447681    1.69417910190347
C        -0.72308823107820    3.18668810895284    5.71319738351688
H        -1.62906139059193    2.58987325170949    5.82735929689290
H        -0.21824720260576    3.23221368898803    6.67816831858364
H        -0.06566308439230    2.69161598391539    5.00406940536046
C        -1.74120733089983    5.13362956332609   10.92771266474533
C        -2.57619464387424    5.90191216446571   11.73659360623410
C        -2.20114285296303    6.12012810928808   13.05415652756676
H        -2.84154808529185    6.71446498970660   13.69000612814287
C        -1.01677674135498    5.60859229498115   13.56238135887563
C        -0.19727238367320    4.86122488869041   12.72657793194738
H         0.73319569241212    4.46836207542579   13.11013920978685
C        -0.53929912218384    4.61050519297375   11.40703541042619
C        -3.83314394383375    6.50042410359804   11.18168684737701
H        -4.57448713495210    5.73003956759306   10.97102746080794
H        -3.61929926969753    7.02528002133671   10.25165798969373
H        -4.26341214406111    7.20463564796132   11.88855444014507
C        -0.61145607772774    5.85764971389652   14.98321360699571
H        -0.49920603682511    4.91425140378420   15.51584696878595
H        -1.35091335883270    6.46304796806691   15.50064783052299
H         0.34709774890718    6.37331801943590   15.01625243302894
C         0.36148376086556    3.81362662125590   10.51705546897633
H         0.84917045781774    4.46805289252589    9.79315265820644
H        -0.19956107204864    3.06264496564640    9.96195530164763
H         1.13721482796267    3.31826810530503   11.09444316511390
C         4.26335314976355    6.99376702284922    7.40207039127683
C         3.67345712088952    4.82878768290347    8.33177840764692
C         4.46658573935665    4.81778945942081    9.48196287197719
H         5.01014195497912    5.70717181440882    9.76025225292809
C         4.54349730789518    3.67450881124342   10.25406579770193
H         5.15828370699680    3.68292046585105   11.14422657185423
C         3.85031331554275    2.51954063211795    9.91388967276648
C         3.06534849145704    2.53528545755406    8.76514114341274
H         2.52081572128344    1.64455046027826    8.48262379112166
C         2.97076685769944    3.66885460482368    7.98557284278424
H         2.35908142831512    3.69142744305419    7.09067756282548
C         3.96048774367957    1.27742902766452   10.74892828743028
H         4.20716761079716    1.52238125348561   11.77987896008590
H         4.74813223801833    0.63130975159551   10.35897163190278
H         3.02918743350304    0.71453059198670   10.73248168769550
C         6.29439576584193    8.09842671849730    7.70153735935048
C         8.04879424656451    9.43260954023416    7.98392124862512
H         8.83189290277220    9.93119200061540    8.51619020079185
C         7.67757824486423    9.50572493722012    6.68879049092355
H         8.09565285248876   10.06001840320694    5.87402424015936
C         7.18965569416339    8.17349061987143    9.97406255800344
C         6.14166998641465    8.58174095431703   10.80000663529352
C         6.15118474922510    8.16651245394087   12.12311612403448
H         5.34194465366063    8.46985180119886   12.77144074071044
C         7.16863690706871    7.36977455815989   12.62930432694390
C         8.19372918021381    6.97624077866672   11.78122339641028
H         8.98494423942382    6.34526734524818   12.16004318989867
C         8.21701775713010    7.35924044119802   10.44884064399668
C         5.03107635405981    9.43393726282921   10.27217849582850
H         4.42840124130123    9.83106714732106   11.08435238493093
H         4.37729325269449    8.84435919940947    9.62792601700740
H         5.41897504277412   10.26336147042172    9.68191387963842
C         7.16316886506908    6.95769454673234   14.06985950858346
H         7.55932048390289    7.76355448044525   14.68840717012770
H         7.78027906280002    6.07652095722767   14.22561137515033
H         6.15073879789768    6.74553768303748   14.40553897609450
C         9.30411845638740    6.88890165179875    9.53036031378906
H         8.87586043631419    6.49700131644903    8.60901294210208
H         9.88884912754482    6.10519814644205   10.00435261626466
H         9.97643099767406    7.70588130661392    9.26905089113623
C         5.91995949103314    8.43696556957024    5.28049084351083
C         5.07527036479634    9.42187615792001    4.76579368270593
C         4.34269045888273    9.12872060434975    3.62596133228942
H         3.65236894425831    9.86575137365960    3.24262087287014
C         4.43745883082542    7.89202212889420    3.00410026729770
C         5.30923056446852    6.94306097793430    3.52361408405629
H         5.37594960837343    5.97433169319286    3.05170057058166
C         6.05098520795547    7.19072942865947    4.66722689976199
C         4.90874963341781   10.73184486161204    5.47679147135267
H         4.66305627375833   10.55370633173714    6.52366220377819
H         4.10002153979598   11.29952383111769    5.02578909860134
H         5.82148953574344   11.32720377507575    5.43475219097133
C         3.58452900570770    7.54574559172003    1.82614242079178
H         3.02321025043076    8.40938604581702    1.48088406975431
H         2.88663504974428    6.76679899883211    2.13251085391939
H         4.19000993722121    7.15779095021830    1.00864504819981
C         6.94141366702462    6.13223351560032    5.25021659439748
H         7.89772338032263    6.54902589196082    5.56857797467447
H         7.12376073851413    5.35007000550984    4.51812875564806
H         6.46216804975331    5.67730439839209    6.11934228087884
Cl        1.27642000737249    8.44396206098308    4.99588172476042
Cl        2.71701650774019    5.56280703905936    4.62376083611823
N         1.26871654188626    7.69636177042916    7.92785514462774
N        -0.50629223902895    6.38088698430829    8.74053043931592
N        -2.05363520029547    5.07274317973831    7.39119605490837
N        -2.09808921806198    4.91761902296256    9.57274104462696
N         3.48593593604325    5.93614293657169    7.52723446347219
N         5.42674619348271    7.17335663543810    8.02466540635740
N         6.59579251575810    8.67536529134664    6.50811660818142
N         7.18901550802342    8.56101427300579    8.61061226132890
O         0.77887177682508    5.86853681137207    6.88153365027736
O         3.72023923162401    7.88872805082696    6.62927046316054
Ti        2.19116213799006    6.90804071151086    6.29902623469383

