52
CSD_code = SIJLAY | q = 0 | S = 0 | Stoichiometry = C21H21N6O3V | MND = 6
V         1.59235264483645    4.22910286025789    4.49419712835976
O         1.64223198069109    4.73372609829338    2.92390238125846
C         0.94538161732558    5.21944588827669    1.94848358902398
C         1.43751506112135    5.32699418937036    0.64065551932560
C         0.65851007371882    5.87303928675559   -0.35860417860811
C        -0.62476502793061    6.33056995232151   -0.07880496078684
C        -1.13216412527603    6.22911999028187    1.19912592966280
C        -0.37343472164129    5.67035144878583    2.23179645754153
C        -0.88786277211408    5.53845678113774    3.55803046937916
N        -0.26624404564968    4.95480826950088    4.53251623090015
N        -0.97206577051375    4.80795211755866    5.69936270298318
H        -0.35641801474172    4.76914218759751    6.50322580971449
H        -1.72953036123492    5.48332340030088    5.81778299757423
O         1.51309737231751    3.62969973795719    6.04175680682778
C         1.83322875860818    3.89239020711531    7.26770108734127
C         1.68808727116426    2.96167096052851    8.30643721436013
C         2.02883335777435    3.29230600030984    9.60182909889004
C         2.51719198717458    4.55979749366436    9.89810584911816
C         2.67557513889541    5.49050791752305    8.89284094691505
C         2.34512089276298    5.18673988161654    7.56894561566529
C         2.54864798109073    6.12994465522470    6.51122747580146
N         2.24488049458044    5.91956992690282    5.27220349502158
N         2.45075299575316    6.94738769688795    4.39870528827112
H         2.64943096169908    6.59242482320129    3.46976387951646
H         3.14419264474155    7.62970385302107    4.71323993694222
O         3.53528670372940    3.67572903439103    4.36223266145462
C         4.00055284639745    2.69265453407775    3.69387955381015
C         5.41186015007606    2.61143181538720    3.52076645973308
C         6.01144304796538    1.60438902947879    2.81496413261314
C         5.24158174530251    0.59502610853814    2.23337246629935
C         3.87907907332802    0.62341832972110    2.39035414447016
C         3.22432335253772    1.64088233822824    3.10585730367310
C         1.80707708910089    1.52628836779436    3.24907790991939
N         1.01778908827158    2.36256987146666    3.81342850763375
N        -0.32905470374189    2.10175393332002    3.81149585358258
H        -0.76283019468615    2.45390713544285    4.65856491740809
H        -0.55918680724564    1.12089183377906    3.63219746514645
H         2.43884858250694    4.97120636413695    0.43949998331395
H         1.05017524929742    5.94960029739617   -1.36205065614504
H        -1.22457734413381    6.76336650973627   -0.86520946772735
H        -2.13159199986852    6.58035235851657    1.41497470403716
H        -1.89309438242884    5.93415021313035    3.73638898691824
H         1.30794469915400    1.97886568855950    8.06338096111537
H         1.91327609921418    2.56220326756297   10.38917756965945
H         2.77794163213279    4.81296797240508   10.91458324040339
H         3.06155711767588    6.47421384864546    9.12196985666008
H         3.00934559077032    7.08460866140134    6.78777740443257
H         6.00084430979383    3.39532467817175    3.97655202761039
H         7.08721887562537    1.58789654716033    2.70613902877243
H         5.71450281790213   -0.19803041334790    1.67401290363637
H         3.27701859346559   -0.16103825661329    1.94900939012946
H         1.36802237270708    0.60759430712204    2.83137592043958

