61
CSD_code = SIJPEI | q = 0 | S = 0 | Stoichiometry = C24H34P2Pd | MND = 4
Pd        5.78528410536701    6.73096473297518    3.35350370474655
P         7.07039674370146    8.31082265436496    2.16295441645941
C         6.58191629726971    9.95761983412239    1.48255625014457
H         6.00054589075500   10.51534882503920    2.21369851656096
H         5.96908404747370    9.80592394850014    0.59532921169728
H         7.46700101857548   10.53199794030767    1.21289439525959
C         8.31611223355534    8.82269962698848    3.41801757110246
H         9.08340923776436    9.46068297955825    2.98151401916474
H         8.77576980772482    7.92038452667570    3.82521166170101
H         7.81990954069299    9.34759128158148    4.23334484894131
C         8.20417301565266    7.78507475339156    0.81237975381522
H         7.62252835104467    7.49184735441352   -0.06018394000869
H         8.78822886973272    6.92857588094576    1.14287279170070
H         8.87468723035601    8.60065869461058    0.54322498230680
C         6.72881299730608    5.19035806517232    2.39639334004389
H         6.88790126636516    5.33948320247265    1.32040120650107
H         7.70615394822979    5.22113260036634    2.92473070476966
C         6.06278230959033    3.89875192932191    2.67493365056979
C         5.85906371378760    2.88679381038622    1.80938797661982
H         5.22970802560448    2.06451873615846    2.13031433261382
C         6.33986764980159    2.79681878332689    0.43954284504618
C         5.53685044029318    2.20003469834903   -0.53606763408336
H         4.56214824217803    1.82503740793837   -0.25568143995352
C         5.96211427168389    2.09895953532730   -1.84557621751671
H         5.32052343539592    1.64252071135923   -2.58658084252798
C         7.20956492500762    2.57779031916498   -2.21268709061931
H         7.54350586787059    2.49912235025643   -3.23734577776158
C         8.03172229127012    3.14206447765785   -1.25152665987706
H         9.01681426828071    3.49477066433035   -1.52571685402639
C         7.60571650461879    3.24813561948764    0.05869981108696
H         8.27320773581292    3.64835654876297    0.80687284404059
C         4.84339231866892    5.19033219909926    4.31201442218506
H         4.68442185085416    5.33960131492499    5.38800847843169
H         3.86604996709262    5.22112380558294    3.78373290238033
C         5.50944065372150    3.89874062396858    4.03346524609405
C         5.71318855304315    2.88680018255846    4.89901999850515
H         6.34253219477229    2.06451863657487    4.57808959165581
C         5.23236625582985    2.79682685759165    6.26885966445984
C         6.03538712869008    2.20006855527456    7.24447926808219
H         7.01009665950049    1.82508578585182    6.96410027567766
C         5.61011537131926    2.09899647478975    8.55398510290183
H         6.25170664049199    1.64256813224665    9.29499512449862
C         4.36265232481707    2.57780388735514    8.92108307466542
H         4.02870513116284    2.49913507935414    9.94573946095758
C         3.54049383234209    3.14206294469267    7.95991492435494
H         2.55539431613374    3.49475473988628    8.23409778902838
C         3.96650711901675    3.24813042165477    6.64969054923032
H         3.29901742580296    3.64834391927505    5.90151249824673
P         4.50180740924574    8.31092501268405    4.54551547324949
C         4.99037022682235    9.95766794560402    5.22595151008651
H         5.57170021120252   10.51537296080252    4.49476207036603
H         5.60324097270375    9.80595732479660    6.11315186973186
H         4.10528773073341   10.53203729275459    5.49562849439850
C         3.25609699122548    8.82271136702623    3.29040562814143
H         2.48888579628104    9.46077651101909    3.72692568586465
H         2.79632404349752    7.92043455531044    2.88325354718171
H         3.75230836020700    9.34754215158858    2.47504673386843
C         3.36801680963646    7.78507466528898    5.89604128795593
H         3.94963316047017    7.49182631035735    6.76861698093299
H         2.78396210116013    6.92858594833278    5.56551544939417
H         2.69749416079508    8.60065190043768    6.16518451895673

