98
CSD_code = SIJQAD | q = 0 | S = 0 | Stoichiometry = C46H41BN6OP2Ru | MND = 6
Ru        0.30017783586012    2.99304398479352    6.40527426032246
N         2.24055066777281    2.18501228437056    6.28012041510746
N         3.39567172189218    2.84907980358439    6.22981432820058
C         4.41634978738117    1.98143387451272    6.30465079657936
C         3.90130945897645    0.70798704718323    6.41203320682026
C         2.52309377301479    0.89119048420028    6.38659368119092
N         1.20169804963751    4.85451196238374    6.72533726804186
N         2.47132679420758    5.20523366579852    6.52609488561488
C         2.65653043453632    6.47447242037005    6.90977977902719
C         1.46174634716434    6.96496991149020    7.39108876207309
C         0.57654729792841    5.90300663449211    7.25751239706956
B         3.56358105024015    4.34096171974338    5.86429463574549
N         4.90791792195401    4.79727455960272    6.40009464327743
N         5.23372497406354    4.64892774828063    7.69005143071259
C         6.44376334008363    5.15309363204924    7.83806943431558
C         6.93011230460583    5.64755439027007    6.62195667444865
C         5.91205065653094    5.39778870119753    5.73114444622957
C        -0.55277478279947    1.39156895899327    6.14114157520739
O        -1.12698193864249    0.40856143337582    5.94150363056616
P         0.40313135800771    2.67238056180900    8.70864764722325
C         2.51070317378593    4.32667108172389    9.41751137118426
C         3.10491922121127    5.40614100222577   10.04360182626800
C         2.36429323270950    6.20980881954201   10.89391782001243
C         1.02314378559604    5.93630196350461   11.10772068105858
C         0.42248995004421    4.85738362447568   10.48439962821007
C         1.16801787915823    4.03112897730115    9.64860233597563
C        -1.02818411313462    2.03005814571369   11.01381556734202
C        -2.16901776204949    1.74659873545367   11.73885027778897
C        -3.40941535061882    1.76393821211055   11.11834880199274
C        -3.50541808872606    2.06608076757890    9.77097441944456
C        -2.36427066732059    2.35435664410640    9.04105030113806
C        -1.12136658850237    2.34167578760990    9.65821784568325
C         0.71183989195102   -0.03203090972703    8.93757899984634
C         1.31083594258297   -1.22846070987788    9.27691110603551
C         2.52893479650654   -1.22746942716609    9.93898979417940
C         3.12998682137501   -0.02642050893999   10.26985584351415
C         2.52989641694416    1.17668316406637    9.93550812741181
C         1.31923372100641    1.18251322203783    9.25649527233987
P         0.27755917903582    3.20658775815568    4.09935899357905
C        -2.51698966047201    2.98043404443429    3.87424774097186
C        -3.70649637295854    2.92038234669800    3.16787933958865
C        -3.70150632683147    3.02752577256738    1.78784030578773
C        -2.50311484969424    3.19505417817159    1.11071866959044
C        -1.31426169220826    3.25420334547284    1.81156085017252
C        -1.31463681831974    3.14532903581396    3.20070785320495
C         0.40328095396829    0.66515159419361    2.96593067491317
C         1.04972074567467   -0.46975146889465    2.51224070676183
C         2.43186742601211   -0.49691134792277    2.42403992729930
C         3.16765174041416    0.61532169029946    2.79738064450725
C         2.52586668599215    1.75174854088498    3.25406809230271
C         1.13554128180901    1.79372632034266    3.32813698611806
C         1.83082549566990    4.72146154978516    2.22537309061306
C         2.27295361965373    5.93236830765260    1.72093343420269
C         1.84819106199140    7.12409505292209    2.28377043492866
C         0.95635669867603    7.10935489754261    3.34436184901687
C         0.51016654649913    5.90372973766018    3.84934517623219
C         0.96007594127913    4.70205225215109    3.30800234104562
H        -1.04154751082094    3.72158410845925    6.53217599777637
H         5.43427677686492    2.31194161350521    6.28028695734218
H         4.43682620175363   -0.21471562355831    6.49617457489069
H         1.74903170932084    0.14734183719133    6.42943145816187
H         3.61098203489493    6.95168800049054    6.82254557006769
H         1.26219558314753    7.94037462505548    7.78367022184350
H        -0.46492197304834    5.85636658200285    7.52019006592503
H         3.52374400228361    4.48989198782496    4.67370605753383
H         6.92419243356336    5.14373622709951    8.79817321787181
H         7.87625561106962    6.11178096449681    6.42997967648596
H         5.83120780478695    5.60304040493768    4.68202818207297
H         3.10284910428072    3.73743488940477    8.72992418980560
H         4.14422208182165    5.61552311901749    9.84236433402517
H         2.82704057145212    7.05608771773963   11.38028681626404
H         0.43818189600350    6.57115331840578   11.75771400074058
H        -0.62872829103066    4.65912623830199   10.64111508073678
H        -0.05796275637450    2.01311166409308   11.49280355429037
H        -2.09350701060628    1.50820007026810   12.78984713469776
H        -4.29928407400292    1.53883113312558   11.68769477697363
H        -4.47068902834991    2.07543494367732    9.28636148088662
H        -2.42169138344399    2.59206586868879    7.98652650469517
H        -0.24091713697055   -0.02517173646159    8.42192366368631
H         0.83090970368448   -2.16274543613882    9.02420867685867
H         3.00393978138042   -2.16163902988027   10.20022585803150
H         4.07432450298871   -0.02065218036523   10.79459558517958
H         3.00881400395515    2.10249056761539   10.21646494209432
H        -2.50754378241283    2.90135985516479    4.95328387413350
H        -4.63918065177997    2.78862905315035    3.69650442962444
H        -4.62961121847721    2.98096553477508    1.23728674285273
H        -2.49764717608772    3.27891204644920    0.03364179906344
H        -0.37864155749090    3.38127986331401    1.28412857944676
H        -0.67539364066693    0.67812458971024    3.04499147318133
H         0.47253735128653   -1.33898547550512    2.23253085479418
H         2.93506672952198   -1.38559561526626    2.07252144735315
H         4.24654318965708    0.59581637924869    2.74288515795754
H         3.10795108143278    2.60819860705766    3.56182800737326
H         2.16814004226927    3.79815413841222    1.77594227969245
H         2.95573153465008    5.94415567699332    0.88334128344319
H         2.20757234204274    8.06407510510058    1.89143941933049
H         0.61277387709156    8.03713966987081    3.77791272851274
H        -0.19434373075732    5.87371271810648    4.67179231626445

