41
CSD_code = SIJQUZ | q = 0 | S = 0 | Stoichiometry = C16H20N2PdS2 | MND = 4
Pd        8.60278478859344    6.96640811870232    2.43033779096542
S        10.41236947826679    3.60652952622533    3.78960723236136
S         8.77563219607850    7.43504279781909   -1.59458321245125
N        10.60500660184949    6.54213145269867    1.51822942324127
N         8.15969970370436    5.11716964040093    1.24505375621909
C         9.15625175468434    8.63132951210580    3.47130960059599
H         8.56329535026480    9.51449496933735    3.21320688768177
H        10.20833631032708    8.83280081910424    3.21865410758275
H         9.08332305617287    8.47922821501621    4.55420346413932
C         6.72535804351154    7.22976665625439    3.18377316106020
H         6.70389157735118    7.20183383599363    4.27818334510279
H         6.10774594856278    6.40260095612041    2.80212846889894
H         6.27581126737598    8.17490083613597    2.86035385210165
C        10.75861279390858    6.84757565096267    0.23140374207386
C        11.63042620551873    6.14189344439250   -0.58917929815913
H        11.71674838427618    6.40586782445453   -1.63163527724177
C        12.35803776934633    5.09636515826749   -0.04609675370979
H        13.03658081388349    4.52431313413397   -0.66063017868794
C        12.20703335647552    4.79909568256307    1.29777030878890
H        12.75299864115648    3.99216778087403    1.76103834265502
C        11.31526808351375    5.55123997261121    2.05315646080000
C        11.08711390104187    5.28079319253784    3.50653865091141
H        10.37307064175487    6.01559165395990    3.92164243048666
H        12.02409367051031    5.30534746764998    4.06362302049720
C         8.69240433679003    3.88954194583705    3.24199432740191
H         8.12806543039341    3.04357575634797    3.63544766928602
H         8.33625061715103    4.83367031817319    3.69450591680311
C         8.58748751780506    3.96258954991878    1.75149106319166
C         8.93364593733881    2.89012780637110    0.93815085965172
H         9.29275078160143    1.97516575570878    1.38282396796675
C         8.82554301270780    3.03279295279157   -0.43486489962068
H         9.09554521658222    2.22056000696796   -1.09266352275346
C         8.36054206103223    4.23030043334228   -0.95177030901670
H         8.26259541654218    4.38415337701143   -2.01505488772514
C         8.03360136539528    5.25619128970042   -0.07307331804577
C         7.53807990911409    6.58272722571014   -0.55519554722617
H         7.30232531067004    7.23504728842599    0.30581419257597
H         6.66280606199740    6.46770632040400   -1.19515946143209
C         9.92802963497114    7.97939186003465   -0.28549311005643
H        10.54987162665653    8.74182879579689   -0.75554429923113
H         9.33386542511494    8.42044101913681    0.53650203232235

