42
CSD_code = SIJQEJ | q = 0 | S = 0 | Stoichiometry = C15H22IN2PPt | MND = 6
Pt        1.76065094400066    2.31348605990540    4.38099686888239
I        -0.29288803286989    2.83130653781609    2.66219309769182
C         3.32090801921440    1.97529125310298    5.71454702519774
H         3.85581282736260    2.91866994704908    5.84920620956912
H         4.02336199535246    1.23689396280397    5.32671162055373
H         2.97981668054196    1.63595758194261    6.69281173938487
C         1.75362893356848    0.26682298513202    4.00646256980901
H         1.93148494548475   -0.31293110057340    4.91390549659999
H         2.52949267556560    0.00003915180785    3.28655675916216
H         0.78703647691255   -0.02378844711069    3.58940278321269
N         1.69605259667779    4.43369642528373    5.07667350020782
C         2.36587629028209    5.50584712760717    4.67818552736905
H         3.14869610135760    5.34225196026864    3.94747590063330
C         2.11068116176593    6.77660117463672    5.15691773280719
H         2.68132582919180    7.61659792704341    4.79330914484265
C         1.10762005490331    6.93963662324722    6.10494763841026
H         0.87267485235014    7.91990014820074    6.49179896366107
C         0.42719926621990    5.82453256976028    6.54575343325720
H        -0.35279636508274    5.87319152993552    7.28757214113923
C         0.74989895747966    4.57513280503445    6.01404206979207
C         0.07935627463183    3.35688758864051    6.46146305380065
C         0.41724783418870    2.12490508423627    5.87881788968282
C        -0.27565060796871    1.01069833726624    6.33956188648959
H        -0.09374846574589    0.02781371621161    5.92995852346257
C        -1.22630859414529    1.15692412468478    7.33746495669531
H        -1.77540353096326    0.30307763471385    7.70441639094129
C        -1.46363248644335    2.42483813166676    7.85126925334123
H        -2.19461049694628    2.59074530384633    8.63177820802005
N        -0.83164376503247    3.49627129035361    7.42593287134445
P         3.25717682018342    2.80267073350120    2.45512976823161
C         5.03357138713150    3.16389049220935    2.77654419906632
H         5.13788606887778    4.06472065567598    3.37928380300985
H         5.56878793179501    3.29516668723163    1.83656923627797
H         5.47062662048724    2.33211457706178    3.32676344451392
C         2.81347511448580    4.16598910452243    1.30719656913353
H         1.95497704801306    3.84936941719683    0.71671036523270
H         3.65543674457378    4.37568569357845    0.64700721575456
H         2.53528013149608    5.07233022595130    1.84070369075598
C         3.43238539381558    1.46412186390926    1.21463915788776
H         3.98433666804394    0.62612869686343    1.63727463384655
H         3.96459873227674    1.84378009589758    0.34243040596570
H         2.44162096696913    1.12433432188568    0.91411425436308

