84
CSD_code = SIJSAG | q = 0 | S = 0 | Stoichiometry = C35H43NO4Pd | MND = 4
C        -9.94441494279391    6.72902658516841   -0.78062589995640
H       -10.29191533408506    6.29937741139191    0.15636505688261
H       -10.50628672481743    6.27722805898898   -1.59465975942397
H       -10.15794038341300    7.79562422295962   -0.76691788417143
C        15.41003779604544    4.74619666964972    4.78785702751361
H        15.20835604706549    3.90473507843740    5.44707761267473
H        16.33245648234372    5.22242094923589    5.11167902636106
H        15.55653307164694    4.36297546312465    3.78037974662042
N         2.24521861816410    7.22035016878212    2.84749635912140
C         0.55633459230463    3.39059330843713    2.11087923389920
C        -0.90233048416625    3.16512832335362    1.89321813443909
C        -1.79205069720992    4.01888235089840    2.54401043143299
H        -1.39300311439655    4.77744486787980    3.20156611213170
C        -3.15427332999680    3.89880790349192    2.34976177020030
H        -3.83257949236347    4.55968872168685    2.87028697580214
C        -3.64708837932992    2.93200350903353    1.48790030081042
H        -4.71169097565222    2.83725686198866    1.32897858654844
C        -2.76985850856787    2.08840033029093    0.82645118129625
H        -3.15253821425608    1.34043037257107    0.14693145313818
C        -1.40540622418654    2.19988007826133    1.02678989631295
H        -0.73251266403494    1.54964085632347    0.48830054431576
C         1.45616682560664    2.32611429312623    1.97481157613587
H         1.06236403664494    1.34368902545856    1.76811460875712
C         2.84336939291990    2.43554891792587    2.12972806247107
C         3.63677662861859    1.14810994935214    1.99321866164795
H         4.69333198514851    1.35543397081465    2.14141906303336
H         3.48886859138988    0.72072136768566    1.00382224347281
H         3.30344756267746    0.42320024014870    2.73253501488591
C         0.90611364802911    7.51722889274496    2.60786976822958
C         0.09689703464347    8.19622944363199    3.51952396554921
H         0.52025397189385    8.56232687896751    4.44357909697819
C        -1.25080576598708    8.34050394443815    3.27079081167721
H        -1.89545454803554    8.83417189589202    3.98080046733522
C        -1.82268924811786    7.82573333893630    2.10479533038250
C        -1.00534719309661    7.19850563479551    1.16588494443076
H        -1.41336344779168    6.81254266822771    0.24550110699624
C         0.34130369125462    7.04343544115229    1.42181864359414
H         0.98741212678366    6.54488122284655    0.70231123393691
C        -3.82758640795176    7.36411759448011    0.89599879568620
H        -3.57845549528005    6.29459765819687    0.85636214774269
H        -3.51835058954604    7.83173365677391   -0.04960855382323
C        -5.32717749894422    7.54623491064944    1.10255161493284
H        -5.54468585186393    8.61430657303918    1.15581407364725
H        -5.60328030521924    7.10382603454958    2.06115813025543
C        -6.13469692103506    6.90355578918652   -0.02090878119918
H        -5.91506633333388    5.83386355747570   -0.05914654048721
H        -5.83132177883177    7.33631759595685   -0.97730571306018
C        -7.63534688017880    7.10924954917112    0.17128713074576
H        -7.94224498661235    6.66879260684086    1.12258968897109
H        -7.84785762566559    8.17968579125338    0.21979695022424
C        -8.45084753422308    6.48636724795941   -0.95933352474304
H        -8.25860961665523    5.41164593989843   -0.99371131091663
H        -8.12668134614410    6.91030550950337   -1.91251264841523
C         3.11062505019815    8.05772936375200    3.32240058544837
H         2.84085652029217    9.08924943906020    3.54657862944093
C         4.44521797704018    7.56297391011086    3.45812143297831
C         5.53824178151600    8.30268715249822    3.90609229860190
H         5.40552814898685    9.32911602639498    4.21901732632041
C         6.79152501471749    7.72796980474698    3.95700457515620
H         7.62744190690056    8.31436218039125    4.30506048131463
C         6.96260153810098    6.39927655614051    3.56182695702994
C         5.86141904024362    5.65302010159184    3.11574194634151
H         6.03453576042453    4.62596381205121    2.82204645541811
C         4.59961850425205    6.20799169481927    3.04456917615910
C         9.30921020755979    6.41584631372666    4.01446548770750
H         9.17692706340988    6.76379994211141    5.04869206284674
H         9.50882016538370    7.28748919960551    3.37510881683175
C        10.47557011941586    5.43668207530968    3.94118689505594
H        10.57102034943319    5.08357097392651    2.91327269515171
H        10.24565913517114    4.57430074549004    4.56887913290355
C        11.78038366515750    6.08257035004281    4.39721491525363
H        12.00704685400058    6.93590198672245    3.75342761386300
H        11.66060370223250    6.46077475986929    5.41543049821148
C        12.94567477292759    5.09732304969100    4.35982326295427
H        12.71704940737195    4.24480993433704    5.00319807190958
H        13.06670462097870    4.71980957670867    3.34209727665418
C        14.25350042015560    5.73757218821327    4.81898479184582
H        14.13053375128196    6.11971846769246    5.83501346303415
H        14.48560521223223    6.58707722137704    4.17259018080653
O         0.87375178809503    4.57097450471897    2.42541703619142
O         3.52268400541763    3.47446546330962    2.36118378280918
O        -3.16617519791804    7.97881681560652    1.98434645909275
O         8.14839188934825    5.74224444791558    3.57363358371852
Pd        2.84294356602065    5.37124270898210    2.60989214393028

