61
CSD_code = SIJWAJ | q = 1 | S = 0 | Stoichiometry = C29H25IN3NiP2(1+) | MND = 4
I         1.78104772812399    0.72993288738273    5.02180224721206
Ni        1.84285521222215    2.13353565712265    3.04973426417947
P         2.94329928441831    0.70732528379587    1.89686840608287
P         0.75102136819138    3.72436123271381    3.97309295866973
N         1.89053802594827    3.24470470041771    1.48447741286175
N         2.89637310387579    1.49153662770679    0.37948015557479
H         3.38832300644708    1.14244542309443   -0.43324759404739
N         0.87977017063189    4.89458771642227    2.73454640108972
H         0.40886487814286    5.78953833201383    2.77621691025202
C         2.43466844405729    2.78014834708277    0.34580897341108
C         2.49046240219187    3.56434339057847   -0.80335348576686
H         2.93995340592044    3.17099211748395   -1.69950388213912
C         1.96022845837763    4.84079071694218   -0.76200134576508
H         1.98775596099474    5.46511936518849   -1.64049853186921
C         1.39484258784804    5.31586031421985    0.40707343733732
H         0.97139486205724    6.30435183736069    0.46567046321001
C         1.38019969075313    4.48815555430332    1.52665114742266
C         4.68435398831341    0.83269275499006    2.39737295627434
C         5.01181758117264    1.86529602346854    3.27210351305404
C         6.32502355579501    2.05592540879340    3.65619503991024
C         7.31063817159762    1.21546965833997    3.16171016940150
C         6.98663854281461    0.19086945074386    2.28530454941451
C         5.67361398212715   -0.00627086107999    1.89730092705587
H         4.21989385899372    2.51230563263092    3.66545098311438
H         6.58045145493683    2.84822623546666    4.34289858838604
H         8.33638945956586    1.35648939955694    3.46509057242023
H         7.75952776832182   -0.46030608353938    1.90686315918708
H         5.41344532802671   -0.81051187652073    1.22317147176951
C         2.64502896531179   -1.02094309920375    1.50513450340907
C         1.96333570307369   -1.39968797265012    0.35186516252444
C         1.73222976276668   -2.74107749037088    0.10752348480689
C         2.15613467782510   -3.69736190107841    1.01727362625225
C         2.80831625944488   -3.31661879424576    2.18063734016544
C         3.05002962732433   -1.97973233139105    2.43286848694319
H         1.61486670493450   -0.65167871815134   -0.34725986034979
H         1.21411763955089   -3.04005703098089   -0.79098105662005
H         1.96798888896697   -4.74185864868352    0.82293692726750
H         3.12350680089594   -4.06095840643511    2.89482761306304
H         3.54407333856535   -1.67213613540282    3.34425033826908
C        -1.00524320433588    3.26358410287071    3.95332973678928
C        -1.99423409343686    4.03943415785523    4.54698712779174
C        -3.31662239784374    3.64868606336717    4.43708377161608
C        -3.65003706127632    2.49706142205064    3.74035842300355
C        -2.66432926972769    1.72583534942294    3.14374642134838
C        -1.34174078038487    2.11052748019180    3.24910703371655
H        -1.72726083748832    4.93014132727750    5.09860030381807
H        -4.08972232612171    4.24191866413591    4.90075887994365
H        -4.68353815191442    2.19628126507615    3.66610726083290
H        -2.92746188549213    0.82694676553948    2.60773683699500
H        -0.55017778281666    1.50374768510216    2.79557531065146
C         1.01899527619790    4.65788473684679    5.48522339322308
C         0.55696803807105    4.10927802894561    6.68088284942082
C         0.77136595284726    4.78370781858470    7.86768489332248
C         1.45240099391123    5.99198741559733    7.86697566226630
C         1.93264211944215    6.52396872624137    6.68032509961141
C         1.72937514689132    5.85516021126170    5.48706864178112
H         0.04035182625946    3.15933464786825    6.67317339454237
H         0.41199203072593    4.36357472685253    8.79385631762834
H         1.61858755742337    6.51672842716907    8.79496941236173
H         2.47271647335651    7.45855190229214    6.68488320970995
H         2.12165172516973    6.25915435737329    4.56370958618871

