87
CSD_code = SIJZUH | q = 0 | S = 0 | Stoichiometry = C48H33N3NiO2 | MND = 4
Ni        4.70685076557329    1.76121305065649   11.57057069809255
C         6.00618134544496    0.96955595094428   12.83508700179159
N         5.62794566457847    0.97946459367324   10.08559211798711
N         3.67913635155418    2.90201771083750   10.32947249988165
N         3.53195808394100    2.26060338990772   12.99120448788115
O         7.19897352233557    2.09747833177978   16.10546714973145
O         9.40945727090160   -0.41179570247737   12.66941846814126
C         6.02392749416336    1.35505115462174   14.20494707292469
C         7.24289528047416    1.42123574973986   14.93873737516460
C         8.33549051844112    2.14137356933726   16.93231444072118
H         8.01852540173170    2.66534964049850   17.83264579760808
H         9.15590658379267    2.69366762463159   16.46281835814370
H         8.67478192292081    1.13633584516892   17.20164836316816
C         8.40295566634224    0.87472919064276   14.42384891141160
H         9.33408718135998    0.95664242910304   14.95735721600595
C         8.33853406984360    0.20375450093211   13.21393614374261
C        10.60542364151265   -0.52117134287832   13.40084323978201
H        11.25984022487900   -1.14143420405743   12.79006193742464
H        10.44400488687236   -1.00950217469350   14.36674770545184
H        11.07588797168432    0.45514764305438   13.55603252862977
C         7.15022467487815    0.23524138896642   12.43122766698268
C         7.15119246330398   -0.54437601723042   11.22213860694339
C         7.93929842019811   -1.78636245566594   11.16057497935501
C         7.67173663230118   -2.79273106059375   12.08620384837108
H         6.90588154477024   -2.63151513637172   12.83157281179169
C         8.36536354368769   -3.98750376554473   12.04449882890184
H         8.14321139690929   -4.76314626902608   12.76343248129694
C         9.34190613644219   -4.19268354556443   11.08420599706730
H         9.88520028722496   -5.12583627492201   11.05303788094048
C         9.62223617368630   -3.19318498208618   10.16731775609377
H        10.39002618096600   -3.34487146252597    9.42192863705728
C         8.92552886338824   -1.99959521841642   10.20130529189269
H         9.16511443247380   -1.21084928604265    9.50359497892495
C         6.39716482553210   -0.16657133982651   10.14029069084273
C         6.51581689087121   -0.73544642954919    8.82247552970298
H         6.99250445058167   -1.66753783756593    8.59266026986450
C         5.96124298757438    0.15102450411312    7.96981114172012
H         5.90783352426447    0.09966978897569    6.89985223140248
C         5.40642853662290    1.21094262200720    8.76880660630249
C         4.76945013106840    2.33668440104194    8.23187473451535
C         4.86339413030489    2.61450628741729    6.78329199581052
C         4.21172056068529    1.80982541837950    5.85483844511729
H         3.62231094122199    0.97221475406216    6.19963709752272
C         4.30192759731794    2.08904272615145    4.50307341079325
H         3.78984901217300    1.45953206229245    3.78959057600946
C         5.04207381247217    3.17388770240910    4.06377223386558
H         5.11211572061838    3.39009150067480    3.00782037229738
C         5.68806554404094    3.98324407388755    4.98309101602453
H         6.26375903637557    4.83289396574041    4.64525976490418
C         5.59778655068927    3.70741436242139    6.33540351792005
H         6.10097209462156    4.33642587813117    7.05572093893972
C         3.98317681207839    3.15533110044138    9.02408392439579
C         3.14817787416447    4.21468918226340    8.51298663649916
H         3.20777563495514    4.61178652456947    7.51804068821166
C         2.28678819399137    4.53660715393360    9.49921248375123
H         1.49143051634286    5.25620953121895    9.48345038351424
C         2.61421673594989    3.69841612885974   10.62576157345637
C         1.86080601632206    3.59082678275818   11.78407133165138
C         0.57968770358872    4.31856377844641   11.88859718225489
C         0.55708389576928    5.70722744140760   11.96195259668247
H         1.48990092888658    6.25281670121003   11.95886218062364
C        -0.64636752647214    6.38346957030923   12.05055136403843
H        -0.65314920277159    7.46235439243274   12.11001830287115
C        -1.83994968066117    5.68159428787981   12.06393214760569
H        -2.77920521435192    6.21074966677400   12.13117019537676
C        -1.82528805292457    4.29869684904796   11.99071440176158
H        -2.75425089633573    3.74692909750221   11.99835306675857
C        -0.62338216142999    3.62002129920698   11.90514733212493
H        -0.60957195787373    2.54142343529624   11.84024455397505
C         2.29778046634624    2.81292609401643   12.86141533898309
C         1.55192205166018    2.66863382900392   14.08402042494451
H         0.54153454615144    2.99983038189005   14.22542400640568
C         2.37029279360768    2.07114049355110   14.97495583333450
H         2.15995674865459    1.79369746516293   15.98912612646586
C         3.63199442503862    1.87794678577326   14.31109700919134
C         4.81207234842016    1.55888525014757   14.93812486528451
C         4.79544192766823    1.30402219006701   16.38875396399899
C         4.35558177862810    2.26739852035648   17.29204444698095
H         4.05078062943094    3.23589288406171   16.92406651732371
C         4.33858920811724    1.99975204638034   18.64837999167615
H         4.00273665131574    2.75842004613580   19.34074885305489
C         4.75155118929971    0.76559816874759   19.12190344260118
H         4.73645477754071    0.55780480424200   20.18183798630173
C         5.18550367052312   -0.20100435073206   18.22975069035207
H         5.50517708806065   -1.16718834494699   18.59358988619682
C         5.20955687330680    0.06528549643311   16.87385027275929
H         5.54379226138763   -0.68910199101173   16.17529814573034

