78
CSD_code = SIKFAW | q = 0 | S = 0 | Stoichiometry = C41H32IrN3O | MND = 6
O         0.20673779933348   -3.46759642596952    2.42845943219307
Ir        1.94998515789538   -3.17689518685175    3.75177804416433
N         1.12412521798511   -3.80520535273582    5.44166867313818
N         2.68495356365042   -2.46933824286649    2.00231789638428
N         2.35804889115700   -5.29493061212844    3.30410066199202
C         2.28087771100047   -7.43112754124510    2.15357107479272
H         3.36356440150860   -7.50659265662056    2.24980411800143
H         1.97798058884159   -7.81529261342590    1.18330721109794
H         1.83802894557650   -8.05761263643498    2.92802515174788
C         1.83015249315947   -6.00048930866009    2.33800263959555
C         0.86692716600759   -5.52222279516674    1.43752421299996
H         0.61717850925667   -6.17402773724206    0.61294947399916
C         0.13333768975092   -4.34319599465249    1.52761980873241
C        -0.89464922804428   -4.10486837407014    0.43298536564491
H        -1.46495497088812   -3.20653508254618    0.65859221371593
H        -1.57096458879160   -4.95290697817982    0.34660401186290
H        -0.38627626723570   -3.97145487483577   -0.52133184080040
C        -0.14356707122926   -4.25756715287405    5.47883466243013
H        -0.67584765041832   -4.23468328107745    4.53823888830120
C        -0.72031541595599   -4.74794869901623    6.61181318190950
H        -1.71310182132092   -5.16982970405932    6.59001264754385
C        -0.02884491239433   -4.63908486246160    7.83892835627065
C        -0.61480235854754   -5.01377024800937    9.06209638189944
H        -1.59612339975180   -5.46574389070508    9.04853404742821
C         0.03319338473511   -4.78053284271964   10.24417324995858
H        -0.41774861735448   -5.06871105526798   11.18219479095206
C         1.26599422218178   -4.11529557527525   10.24206519891991
H         1.73368336714268   -3.86422741033979   11.18261339184912
C         1.87174157487643   -3.76602306217206    9.06415049366032
H         2.78594379360744   -3.19753272825909    9.08414240590976
C         1.27672056254411   -4.07616160080298    7.82395796549700
C         1.87228759096301   -3.79608140342782    6.55756804656975
C         3.50509490379340   -2.96277734088837    4.99947425469022
C         4.79874766538968   -2.56225888337169    4.68533026027828
H         5.00611709544734   -2.14171778497786    3.71059227069525
C         5.83670502000383   -2.70642424183437    5.58943696236551
H         6.83415853783249   -2.38415661742965    5.32459848486576
C         5.61013286586173   -3.31368872940160    6.81530747293893
H         6.43371260109501   -3.49729120306304    7.48991369170087
C         4.33358162034876   -3.69751174293873    7.16987606584998
H         4.18609732034769   -4.23322209926336    8.09433413657155
C         3.26375590263330   -3.46201200757225    6.30316526648186
C         2.14073000863282   -1.29859173498015    1.64035426182866
C         3.32791944902205   -3.21728582484031    1.08728028907007
H         3.78171846870399   -4.12600036453163    1.45583743232757
C         3.43854328799350   -2.85994007807832   -0.22429660523435
H         4.00995192956495   -3.46041390568762   -0.91491533126009
C         2.73610312712402   -1.72680723677162   -0.68873994332406
C         2.68064750172514   -1.38128282824689   -2.05203836332974
H         3.24620218089116   -1.97113864882961   -2.75898719320476
C         1.90169030129771   -0.33858114638705   -2.47296150380435
H         1.85811327312588   -0.07658015416193   -3.51984389545384
C         1.11805058930300    0.36674810045641   -1.54950911170332
H         0.45429092368499    1.14229824860269   -1.90219892943785
C         1.17515052113096    0.07124823862224   -0.21365760092055
H         0.52490726663217    0.58160491371466    0.47748217929899
C         2.02697504789408   -0.94614915181691    0.26383587101221
C         1.52097362961801   -1.22321218928479    3.96937272971169
C         1.09091982560151   -0.52325012379838    5.09180943289160
H         0.93105497030239   -1.04549451064617    6.02562289253133
C         0.88298539142066    0.84469142866144    5.05037035097324
H         0.54885810001965    1.36655822461067    5.93633284113292
C         1.14182172593727    1.55733874465520    3.88836455767194
H         1.03278095889123    2.63227325265792    3.87591088340990
C         1.55321600368183    0.89313183011194    2.75167459529219
H         1.81101555429408    1.46061703164928    1.86976237504275
C         1.69476561889721   -0.49670141969730    2.76945123814647
C         3.19921025195884   -5.90087480174609    4.24645399580933
C         4.58362171568989   -5.75590903464034    4.17173728990707
H         5.01657740264413   -5.21976299983882    3.33998612247411
C         5.39391820493633   -6.27407582159389    5.16190288177645
H         6.46484573161394   -6.14931359827020    5.09367805604101
C         4.84240612483161   -6.94634220158215    6.23964691209332
H         5.47936371605626   -7.34316610159146    7.01610270898898
C         3.46970597589357   -7.10686544049991    6.31535485377158
H         3.02961375540824   -7.63076375392865    7.15235886513683
C         2.65329098758085   -6.59752453756052    5.32474823441880
H         1.57989061600116   -6.72023582390031    5.38508590210294

