27
CSD_code = SIKKAZ | q = 0 | S = 0 | Stoichiometry = C12H9O5Re | MND = 8
Re        0.09892255067360    5.85785919390099   25.46918759261573
O         2.73112229465971    3.68621822990614   22.82125124027687
O         1.81359912693337    2.01243815888224   21.12242962535410
H         2.43311041812115    2.68349187090954   21.53826436538101
O        -2.36110575791979    4.87504600525128   23.88740121631906
O        -1.55923643635594    7.35069369929400   27.60316238172339
O         0.48399720189827    8.36572576238379   23.70958735335361
C         1.58400129992875    4.13811518076102   24.82223343577660
C         0.84639618702570    3.69306118784020   25.97115122970355
H         0.27970660925488    2.77655178988146   26.04028792816295
C         1.20139835393176    4.51129795815076   27.06342998072353
H         0.92120135279476    4.34402651290569   28.09339122277200
C         2.13103448438750    5.49048579356795   26.60618918246418
H         2.68315069741772    6.17192831913242   27.23610455424086
C         2.38437701167848    5.24248281688242   25.24034226422733
H         3.13053060483680    5.72281868757857   24.62561935579350
C         1.73317206122108    3.45594863305243   23.52618460047496
C         0.70755045752266    2.52584054906840   23.13118129964078
H        -0.15357723741951    2.38360597578907   23.76092078642019
C         0.79247112382917    1.86072297217581   21.94590010865260
C        -0.25485366310386    0.90577684415489   21.47467575174590
H        -0.61747799509321    1.22369521809623   20.49857918021297
H        -1.08367338278561    0.85302199624335   22.17283001750080
H         0.18537947729317   -0.08295726361348   21.35222302137534
C        -1.47918626715412    5.30026079401394   24.48022493533538
C        -0.97575656486980    6.82351030169828   26.77123761575253
C         0.28624599129285    7.45193281209145   24.36730975400027

