34
CSD_code = SIKKAY | q = 0 | S = 0 | Stoichiometry = C15H12CoN3S3 | MND = 6
Co        9.86906446399321    1.68559855226010    1.65127331867004
S        11.36901408827858    3.50187438607892    1.70781136066564
S         8.74008769857792   -0.28204893008383    1.09089011251145
S         9.40520709893422    1.45360434594335    3.89718083813771
N        10.14537687305861    2.27889675252452   -0.14237388848053
N        11.15347242584505    0.33607502652560    1.51078285320677
N         8.41961036701271    2.81367933577979    2.01375054420202
C        10.98914912674454    3.31150659237763    0.04867116112099
C        11.44759819404951    4.08817832228381   -1.01946805323077
C        11.00994064644107    3.77524254794599   -2.28587165440611
C        10.13213370002370    2.70477103504044   -2.46755770311071
C         9.72434771054043    1.98011180899320   -1.36639508907136
C        10.38718092629907   -0.73799382101729    1.24050137153638
C        10.92945747413082   -2.01804544138997    1.12174664062236
C        12.28784781844904   -2.16416711579074    1.29449997648541
C        13.07012005454758   -1.04511563119026    1.57951905409426
C        12.46261524111154    0.18977995318504    1.68210839494402
C         8.25472388819851    2.58623001274533    3.33267141459153
C         7.25597675813339    3.22783868171254    4.07004900084009
C         6.42926500710299    4.10869598027485    3.41300308110412
C         6.60785773808501    4.33309693986105    2.04642685914667
C         7.61614301744280    3.66465744004473    1.38471714563596
H        12.12310486002610    4.90489049169306   -0.82484198340866
H        11.34080936430651    4.35377099187952   -3.13540709671517
H         9.77370883263860    2.44195841733827   -3.44910030955603
H         9.04551137224616    1.14203399474954   -1.45164248082663
H        10.27897367461730   -2.85018461207307    0.90796650999593
H        12.74502071399512   -3.13894390186599    1.21408677376067
H        14.13414939372010   -1.13465140598469    1.72386931630533
H        13.02513049117857    1.08587721045874    1.90760486331154
H         7.16209033901392    3.01772439524279    5.12271323684582
H         5.64604056014893    4.62470742592341    3.94769569197730
H         5.97173244962314    5.01672603073788    1.50882523791897
H         7.78973763148537    3.81062418779567    0.32639350117484

