33
CSD_code = SIKMUV | q = 0 | S = 0 | Stoichiometry = C17H12CrO3 | MND = 9
Cr        4.59349532619455   12.89759278591239   14.91808243865901
C         6.40075579728054   13.02459446246860   15.12864993201200
O         4.73695430240853   13.58009024140905   17.81102373855824
O         7.53158195891497   13.16339497235116   15.31344729829345
O         4.82036574881989   15.86288782496485   14.78215033355360
C         4.65008969916810   13.28300727420785   16.69851378707533
C         4.71157717638823   14.71434921296558   14.79934098258103
C        -0.40588022652013   16.18154553087811   12.14141222281761
H         0.24507338546882   16.14555262617628   11.27893989380084
C        -1.49225079306149   17.03303026884479   12.14109522633993
H        -1.68559974164393   17.65814549123053   11.28156954721050
C        -2.33164430720058   17.08847643184057   13.24178544466309
H        -3.18098133330936   17.75513623244425   13.24517256386910
C        -2.07035721923751   16.28652349783928   14.34149868357673
H        -2.71714788598113   16.33133756932943   15.20566924519958
C        -0.98614832592963   15.43213084760558   14.34316490334787
H        -0.79649991904928   14.82673698995277   15.21594611270596
C        -0.13185119193908   15.35839017582266   13.23893621910049
C         1.01939621460516   14.48160390786849   13.17703884454075
H         1.64061379808245   14.62994460997500   12.30320155906498
C         1.35120477172661   13.53925185350246   14.07679750712336
H         0.71712031789145   13.38980370517617   14.94144819205645
C         2.50061775262491   12.66359141274583   14.02202124575873
C         2.68312933514968   11.70354841638654   15.04045694388983
H         1.93287892136668   11.61342852089371   15.81901281898500
C         3.73606102722305   10.77588680061305   14.99610682941753
H         3.79715181311238    9.99468195927411   15.74447833360035
C         4.66762410118120   10.83138189411866   13.95908748288408
H         5.45028548342253   10.08552389831678   13.88772035194872
C         3.46090401138189   12.69283744995327   12.97109889985197
H         3.31968240867821   13.37101552786335   12.13908329790610
C         4.51003895986199   11.78129264166888   12.92861532980847
H         5.18075863292076   11.76548496540173   12.07773378979990

