102
CSD_code = SIKNEI | q = 0 | S = 0 | Stoichiometry = C43H54N2NiP2 | MND = 5
C         0.10661717120830    5.22423336377717   14.39225791089693
C         1.14245519647625    4.80837374264352   15.38541572377554
C         0.76503093160302    4.59700714709083   16.71584889922355
C         1.70466300624581    4.15045856678469   17.63624000692826
H         1.41921568982435    3.95857447366205   18.66033156759227
C         3.01021871352692    3.91994976365155   17.23942299625000
H         3.73773477312654    3.57196034038190   17.95871286801680
C         3.37724169305115    4.10403300242872   15.91654237903732
H         4.38728409113977    3.88868735136314   15.59989034277624
C         2.44573216319237    4.53364260215705   14.98760866591435
H         2.72524754479565    4.61532394468669   13.94645406589787
C        -1.40694216316030    3.57029282484210   18.30793351955985
H        -0.80001243369170    3.70929439985492   19.20745911640189
C        -1.10800573157533    2.20253425314171   17.70323175310868
H        -1.47799407162744    1.40812924303556   18.35044650831538
H        -0.03803653286399    2.06105433158439   17.56144480654912
H        -1.59151913552366    2.11526496107042   16.72867014292136
C        -2.88717230775596    3.69720311317020   18.65553375245578
H        -3.48051956525022    3.64073154370933   17.74188466897480
H        -3.09544707596197    4.64916978845077   19.14138309727924
H        -3.19981192186886    2.89515691359013   19.32281567350376
C        -0.94571519760337    6.46319253945733   18.05836938426771
H        -1.99460340959537    6.75764251570213   18.19412567048767
C        -0.25265143181209    7.52095215416310   17.20262144922055
H        -0.38097614834841    8.51313104387610   17.63336087999834
H        -0.66411245297014    7.52722977223251   16.19343245544417
H         0.81448915845585    7.31314215853713   17.13021321510008
C        -0.28175315435070    6.37433671533613   19.42665131579508
H         0.74985454828023    6.04197866475939   19.33705957142421
H        -0.81683365088102    5.70504618917339   20.09598176232792
H        -0.27418540473698    7.36395509302170   19.88327706900703
C         0.12844075548170    6.56007331025980   13.78241336676261
C        -1.06517760430385    7.20558614296609   13.39770078356333
C        -1.00816189512200    8.40024384947863   12.69141726454676
H        -1.92320540334150    8.86599610691082   12.35693876183965
C         0.20293667108740    9.00477687228298   12.41545868111916
H         0.23520736761121    9.93333120030734   11.86465265235340
C         1.37379901214169    8.42376446380158   12.87864042585171
H         2.32352841959746    8.90835274872422   12.70332650220411
C         1.33872177845263    7.21814033312797   13.54834940467429
H         2.26288593025093    6.77701726842095   13.88928152593608
C        -3.64855905746949    6.35420954555658   12.45123939864675
H        -3.85031818049190    7.35622536124718   12.05910490337350
C        -2.85685324882496    5.55593654280432   11.42254403229617
H        -2.52278703088771    4.61629756784413   11.86470004105834
H        -1.98276949911470    6.11311080036372   11.09082093337341
H        -3.47398005209840    5.33235236896715   10.55285810516643
C        -4.95848530762764    5.64390726484031   12.77707207220655
H        -5.54252754513125    5.48140520042862   11.87174046845004
H        -5.56279500159877    6.22032851171210   13.47394479501271
H        -4.74399336016144    4.67717962011879   13.23290310931007
C        -3.41137607999501    7.90980875920880   14.95610282391060
H        -2.55577125335913    8.42871974458938   15.40914308066000
C        -4.23401090860560    8.93434253849389   14.18385902102802
H        -5.10549766301282    8.47832197201148   13.72052948677223
H        -3.64852676071771    9.43290599164480   13.41621748579740
H        -4.58675250422090    9.69800013798259   14.87718992662697
C        -4.24822843453613    7.29642368465867   16.07935079291643
H        -4.48499953162952    8.03934175624728   16.83976346279616
H        -3.70311860351444    6.47316569094583   16.54509190646767
H        -5.18211717770930    6.89657628117778   15.68925939220931
C        -0.44602640958717    4.13388017503748   13.71153656752538
C         0.96423096963470    2.83284159810417   12.32727771747047
C         1.68554455681889    1.76404260587589   12.87507797360946
C         2.84144906268060    1.34416598950679   12.24006314635935
H         3.40775140694379    0.52622096149210   12.66269931372231
C         3.27412562301465    1.95763059303594   11.07727305908028
H         4.17711912620210    1.62044390283481   10.59010919862715
C         2.54551136414980    3.00328243819117   10.53965721125775
H         2.88253588953519    3.48287125107843    9.63126892710168
C         1.38667634059486    3.45709509634700   11.15037923627932
C         0.59543210927818    4.59006834408754   10.56925970759167
H         1.05646929816848    4.94975800169056    9.65257732659511
H         0.53304916443690    5.41999181222987   11.27419800820276
H        -0.42030817252358    4.26408624955251   10.34782752004202
C         1.20583900288291    1.12655718444626   14.14365070422783
H         1.30234792533288    1.82417540100862   14.97747142213119
H         1.78039922063511    0.23191883467501   14.37008777830784
H         0.15124163891639    0.86528282936051   14.06013990049255
C        -2.83631128562945    3.13534375730301   14.71870696748466
C        -3.92460452542464    0.98541460443913   13.95889549415678
C        -3.70682361179660    0.57259995364355   12.63669193510654
C        -2.89965709028459    1.42204535205713   11.70863194233667
H        -2.62054801157256    0.86376674750079   10.81891066734616
H        -1.99786389786309    1.79110768900878   12.19799850260726
H        -3.48216124648592    2.29196378611385   11.40187090180780
C        -4.27514100820240   -0.62437513443849   12.23100408538630
H        -4.11912988552357   -0.96405362981286   11.21758952350989
C        -5.03521879101073   -1.38380429633475   13.10387590234587
H        -5.47074032576962   -2.31305113268546   12.76820515603590
C        -5.24029591349367   -0.95836357329708   14.40591989200102
H        -5.83469682972122   -1.55629977501947   15.08117137358495
C        -4.68968580526961    0.22914660332611   14.85718777540004
C        -4.88358427452466    0.71470851696295   16.25994364823588
H        -5.55039807955645    0.05443592030670   16.80783446010323
H        -5.30224569787134    1.72097326469325   16.26146199220745
H        -3.92713775742040    0.75873013413214   16.78093318953274
N        -0.22752332575113    3.17442091973285   12.95963861990423
N        -3.36967061834992    2.14447886304458   14.38329026344796
Ni       -1.77457674027455    4.60971900958844   14.95198320710183
P        -1.01227706023084    4.88441513539042   17.04628996450954
P        -2.62889705760318    6.48373986133398   14.00727397184965

