60
CSD_code = SIKPUY | q = 0 | S = 0 | Stoichiometry = C21H33IrNPS3 | MND = 8
Ir        2.61639928404310    4.27594472321715    8.22762414562941
S         1.23730985987796    2.28739236878749    8.63347456632604
S         0.84060688560198    5.73364789034457    7.35056003622931
H         1.59150623927987    6.82478994331219    7.32553238477572
S        -0.51015808543741    1.39428778076501   10.72687603760001
P         2.69116395339904    3.51564030135954    6.06919923493091
N        -0.25498933395282    3.96776325997807    9.97902448792984
H         0.07179913021856    4.56346228134397    9.21582784365969
C         0.07423375533443    2.67108772353083    9.86152240646003
C        -1.01580584238550    4.64842676695014   10.92520088743025
C        -1.35586576017557    5.96818407728082   10.62519301718089
H        -1.05903253573275    6.38666819525248    9.67384524299719
C        -2.06902542717169    6.72959994341214   11.52827398421750
H        -2.32670053671843    7.74823647152461   11.27493953123480
C        -2.45849695728272    6.20494151090149   12.75428427044948
C        -2.10770376413753    4.89249030566115   13.04783221729135
H        -2.39695089749176    4.46659532188374   13.99789279261572
C        -1.39614676297915    4.11611141788352   12.15434834821619
H        -1.13869288990496    3.10138288786090   12.40722322864114
C        -3.24280141290690    7.01925827618701   13.73821971335570
H        -4.24017153724986    6.59854454410652   13.86470027774458
H        -3.34336299098769    8.04773543407125   13.40030471954289
H        -2.75610678369767    7.01653295627765   14.71269049744457
C         1.12849302043561    3.03517994376280    5.25916736146267
H         1.33108249046847    2.69361664177342    4.24478729269937
H         0.45595785876837    3.89037341977540    5.23919321416824
H         0.66530760840492    2.23805177820787    5.83728632833309
C         3.69466972536842    2.00525487283947    5.84269396697544
H         3.28655950661527    1.22903400821225    6.48666193024260
H         4.72466307231141    2.19971131126704    6.12957177207341
H         3.66114543667286    1.67856830574756    4.80461593269395
C         3.40965712187048    4.66313805380392    4.83783320458639
H         4.42064713380511    4.93403330250480    5.13189617521540
H         2.79578884339445    5.56065397617457    4.79793306137900
H         3.43026286473136    4.19213943519784    3.85635533028677
C         4.05989641086237    5.84866864634608    8.93332161614111
C         4.83129344648865    4.67356137517004    8.69725039251638
C         4.32255516384176    3.64017428225771    9.53905355354508
C         3.30860986275781    4.21371358130921   10.38534062060032
C         3.12340436495172    5.56018856002620    9.99684653496160
C         4.37863265733142    7.21549119960833    8.41385467926418
H         3.52767003721814    7.88466288038485    8.52068770295342
H         4.66704602314307    7.18668546399451    7.36404599364779
H         5.21126878969866    7.63766519584209    8.98018824937741
C         6.06086679178527    4.60013780192770    7.85176626025364
H         6.01208002945084    5.29784047187999    7.01840017412664
H         6.21874385310074    3.59759802707341    7.46040703589843
H         6.93006602402213    4.86371859781551    8.45775660450276
C         4.90225501151271    2.27848732326791    9.73726508956902
H         5.51316831305798    2.26303070886429   10.64176017029293
H         5.52628427603262    1.98585656121753    8.89631989176375
H         4.11139397231472    1.53944893565409    9.85441696266689
C         2.72958267453116    3.53069127134741   11.57913420423867
H         3.47389150588868    3.51423021519817   12.37790694673846
H         2.45978439159154    2.49989073726558   11.35665233030180
H         1.84521529830163    4.04463080965389   11.94861971809508
C         2.28936783015713    6.58482740269156   10.69896083589691
H         1.52314797877523    6.11734674230334   11.31287020985348
H         1.79384980965289    7.24808870008127    9.99163550935658
H         2.92338321112852    7.19388507766314   11.34585327140696

