43
CSD_code = SIKPOS | q = 0 | S = 0 | Stoichiometry = C14H24IrPS3 | MND = 8
Ir       11.33764915464352    8.59006629615896    3.16220567456746
S        12.75589522923805    7.32867297654709    4.64829473101752
S        11.09008565669197    6.25526236733470    2.63265653351900
S        12.75167612658961    4.36234615287041    4.25019567379957
P         9.72473206187782    8.41400445357011    4.78823323101040
C        11.54169359358630    9.25651755457869    1.00868220094897
C        10.73557004466723   10.20204793748478    1.70001961769970
C        11.54928620291419   10.79869210860250    2.74129559858157
C        12.84182716402101   10.21151805512426    2.67484447851122
C        12.81746598597725    9.20541742682496    1.65463891187832
C        11.17578230957625    8.51690415896484   -0.23493714002375
H        11.67976078726868    8.96971051211087   -1.09049744426227
H        10.10353099343212    8.54744998303060   -0.40858888863797
H        11.48369444446637    7.47463703887246   -0.17481513971161
C         9.40609036050396   10.71068089357135    1.23550282638852
H         9.54744998793062   11.37715076934095    0.38258168761307
H         8.90124311338031   11.26957201202405    2.01911050696999
H         8.75875894348401    9.89446490873077    0.92158779682345
C        11.17420148030715   12.01046973383224    3.53650975574644
H        11.37432627925100   12.90982681777295    2.95102315351237
H        11.75185118705571   12.07002127633611    4.45602563637464
H        10.11675831962354   12.00514716600560    3.79383403722873
C        14.05465571961576   10.61563063190445    3.44497714938210
H        14.70992705809923   11.21230974479691    2.80800195655615
H        14.61214355040523    9.74218229884353    3.77770106803467
H        13.79170757351670   11.20644358584077    4.31853643397980
C        14.00677893000523    8.44531179304001    1.16494274981163
H        14.57263270980253    9.05140688518239    0.45468026953294
H        13.70190169800522    7.52860763903223    0.66488775474999
H        14.66722396290065    8.18346210338525    1.98930162024164
C        12.24315678659544    5.86473686118203    3.86716495649935
C        10.11732512106261    9.33008008825899    6.32215790598273
H         9.32225597114039    9.20332872962957    7.05536629193605
H        10.24213623077036   10.38612423125897    6.09557388437461
H        11.05263704512249    8.94284998692764    6.72162046022026
C         9.31533113257778    6.76181525315298    5.45130656735045
H         8.57139088693199    6.85697050386458    6.24161290254737
H        10.21534200054679    6.29668106624982    5.85052368301919
H         8.92863966280960    6.13521385556311    4.64960779836085
C         8.05791191214913    9.04922083213048    4.37444145924495
H         7.38430420533117    8.92244398315946    5.22049762334719
H         7.67493095287288    8.49839615788270    3.51835525299363
H         8.12023746321479   10.10290316903726    4.11593877235156

