37
CSD_code = SIKQOT | q = 0 | S = 0 | Stoichiometry = C10H20Cl3N2NbSi | MND = 10
Nb        3.93430173011698    6.95701849723229    4.39969542601796
Cl        4.23117660931002    7.25148528692276    2.07921329017145
Cl        4.81604733626280    9.21875194574635    4.59194139626022
Cl        4.47600114625063    4.59750831340087    3.90311185531136
Si        1.08834263143345    4.81536739474211    2.96081561268444
N         4.73606385907391    6.51695930838386    6.13288098547382
N         6.36651750294785    6.80875338891614    4.08465611366902
C         6.08500887774981    6.04709755861137    6.33455923628255
C         6.99241276494742    6.85740205325741    5.40269215069877
C         1.62033927485726    7.63473922067128    3.69017419018196
C         1.79437987525648    8.42216381532438    4.84201620943960
C         1.93245408008263    7.55557270045587    5.94450026290853
C         1.83559912443120    6.22816713193973    5.46733860441925
C         1.63309587144908    6.26311542113296    4.05755549688881
C         1.22708126049877    3.20136264248829    3.96686186516428
C         2.06507257971416    4.73866943198023    1.32913839276518
C        -0.75303397409155    5.17548764793080    2.58911661598314
H         4.24699824631517    6.53029021532915    7.02229922625172
H         6.13352604978410    4.98065481621371    6.04850101933976
H         6.41293600458044    6.15305634299879    7.37416285032089
H         6.99702350746060    7.89962851877010    5.73756790555055
H         8.01451024734319    6.46082853743543    5.39722690046797
H         6.68592017249194    7.57244301827296    3.48639110516926
H         6.56209263561093    5.91776054707156    3.61932639035751
H         1.39297477705958    8.01325896248354    2.70160776326831
H         1.76872954333911    9.50183128384070    4.88604674281491
H         1.99022154321502    7.86237177411506    6.98073411248333
H         1.76011116418414    5.33937166171737    6.08136071801454
H         2.24243667152914    3.03262424214016    4.31188038320636
H         0.94405233079822    2.35227023326580    3.35322403776424
H         0.57060584724059    3.21020013482478    4.83261256020043
H         2.00287903476650    5.67552556282406    0.78201296779078
H         1.67989911801907    3.95423713978835    0.68454870006925
H         3.11697227897081    4.53543952473517    1.50836802546191
H        -0.87787877886368    6.07700086903787    1.99778973162714
H        -1.33214717360916    5.29654478168270    3.49940271779776
H        -1.18712377053480    4.35414007431629    2.02986843773776

