65
CSD_code = SIKQIO | q = 0 | S = 0 | Stoichiometry = C26H29BMoN6O2 | MND = 8
Mo        8.27627826879237    3.60852889366567    0.59789842083593
C         9.34469770347912    2.82566628768655   -0.79709128418728
N         7.19840272805223    4.31924675992553    2.47349060845078
N         9.56190907554725    6.20622450332080    1.64549235372692
O         7.61569413941890    0.61779037317178    1.09622232303033
N         9.38296663313212    5.46966861666948    0.53743713074514
N         7.78162542100603    5.31903852219623    3.15944466856966
O         9.92584344069949    2.22696722498601   -1.59218541970413
C         7.63271615746764    1.76829965768976    0.82568625896494
N        10.00155309316717    4.24005319946021    3.04955945512680
C        10.12173762000294    7.39005583853363    1.34451574765107
N         9.81445898068061    3.31619897108818    2.08696527951333
C         7.08724801390566    4.18977903333002   -1.38825478470707
H         7.11441771907391    5.19301811274072   -1.80488439852029
C         6.97805226582788    5.74388359276156    4.15475305611559
C        10.64010867664375    2.29862793366249    2.33623493028562
C         7.14386691015689    3.01749135452318   -2.25546353070269
C        10.93514616828380    3.81960559093785    3.92028527295475
C         5.83968454249522    4.96779882971747    4.11924584019188
H         4.99042888505865    5.02593887347801    4.76942533819283
C         7.30851783920566    6.85595156380357    5.08351974742558
H         8.12783307706243    6.57918860814047    5.74528786146803
H         6.43675412763475    7.09024330987736    5.68879395838337
H         7.60570591677997    7.74514856416119    4.53118268832118
C         6.34810367839056    2.39619348102760   -0.14084626129437
H         5.48457193800525    1.92105919694562    0.32429923813309
C         9.84928187767421    6.18163181839827   -0.49270918289291
C         6.66427259601925    1.91915065219621   -1.51619074920211
C         6.02950146298971    4.07176366749956    3.06223853142982
C         6.32590521779113    3.88156076522473   -0.24169107490110
H         5.53385027522988    4.50521759712240    0.16937048895489
C        10.31489817889831    7.41267401484520   -0.02305354551313
H        10.74023140386747    8.20420891572679   -0.60601966238194
B         9.27601704527270    5.59512389521394    3.01431771180014
H         9.65976103281607    6.30080652078933    3.87603914222317
C         7.55551677128018    2.84932691327870   -3.56309411357441
H         7.93140086157984    3.68163826121160   -4.14092834587544
C         6.61063185466980    0.65961575335463   -2.06525241220654
H         6.26346955186115   -0.18542419141646   -1.48874310173833
C        11.36659451321722    2.57687806024859    3.49539563077367
H        12.10571252347909    1.95597671282726    3.95929997222220
C        10.77937440681693    1.08741025458642    1.48862554632095
H         9.84243930647096    0.53988594135476    1.42939255444330
H        11.53899261354752    0.43674727363230    1.91456654415666
H        11.07762076791948    1.35900604201817    0.47854912284180
C         9.90730905510088    5.74895075987515   -1.91429330432049
H         9.76302377100253    4.67946181760224   -2.01128806667945
H        10.87864302799011    6.01671919645784   -2.32723953756195
H         9.14712389606304    6.26252729182286   -2.50268978674016
C         7.01812116818325    0.50025211390974   -3.38838690182428
H         6.97421988907138   -0.47808384735739   -3.84315063778827
C        11.38237986377925    4.59199608616052    5.10890154081125
H        11.84020745330037    5.53309315119646    4.80926513798154
H        12.11176387805227    4.00848824326971    5.66381534119028
H        10.54037701444351    4.81642650330008    5.76093565774521
C         7.48052288579948    1.57732249032438   -4.12161620130903
H         7.79476469193320    1.42985270391637   -5.14463267765390
C         5.09794256488502    2.95678645723838    2.74024838660381
H         4.46218551492638    3.18527736029045    1.88534518443712
H         4.44986869396040    2.78994120613308    3.59846397339536
H         5.65486615487661    2.04200085670499    2.54765827638252
C        10.44425678075166    8.44060877164719    2.34420144700099
H         9.55915964659439    8.71405886879656    2.91527006136963
H        10.82191799633064    9.32235819168019    1.83373178412513
H        11.20095077159468    8.08809601541879    3.04293276698752

