37
CSD_code = SIKROV | q = 0 | S = 0 | Stoichiometry = C18H14MoO4 | MND = 10
Mo        3.42913983267165    1.63406044682533    0.71638908841298
O         1.45549794374841    2.01998607137517   -2.83540808607464
C         1.60126282502543    3.02762005657042    0.71775506209601
H         1.58192869198785    4.10935334309398    0.73762077011367
C         2.66959242739746   -1.04392855573710    3.69407783854424
H         2.60037483124847   -2.04791123120912    3.29990690154699
C         3.57111516238471    1.21442909193586    3.61723434555000
C         4.35895403067001   -0.15680840227019    1.93266846489699
H         4.67613364199982   -1.10054534348749    1.50270531744114
C         1.21836988822994    0.85472202412840    1.31701116689309
H         0.91165598305823   -0.00234910195405    1.90032680303702
O         1.95024957333587    4.01959727182289   -1.92801651789192
O         5.05995233092850    0.56864413361443   -1.66215715555554
O         5.30765868632385    3.79119900474831   -0.40663851526284
C         3.47512058305176   -0.09637707200649    3.08639448941151
C         4.46188390045891    0.90977449005419   -0.74598694218410
C         4.63194068684846    2.99866783549386    0.07388510352815
C         1.96427646501676   -0.67839337333120    4.83324367053125
H         1.34213722799987   -1.40813935390822    5.32994630357208
C         1.33865970458681    2.16837709203434    1.80271032082465
H         1.13642500939072    2.48180608432633    2.81781949657547
C         5.19368953475273    0.99220398254832    1.97801954667139
H         6.21889674426009    1.06049430372094    1.62271814210210
C         4.51277872911175    1.94611684453724    2.78269823599417
H         4.96881584813436    2.87426515005453    3.11120271112876
C         2.85880500491638    1.56646059353498    4.75060959806235
H         2.93553820900479    2.56072956707611    5.16775865659674
C         2.05732054525508    0.60513355912111    5.35268335068082
H         1.50650711233260    0.85674479457343    6.24689230102207
C         1.65614415782509    2.70695235182614   -1.86296235212024
C         1.39996517982169    0.87413205304393   -0.07877040563409
H         1.21058641794549    0.06214420772444   -0.76895851744290
C         1.60160782302103    2.23369520345562   -0.47248726565790
C         2.06474774232798    4.55751481419671   -3.23777533732549
H         2.84675096621261    4.03446476505219   -3.79174443870303
H         2.32082169934801    5.60597223609002   -3.11257744138711
H         1.12019485936186    4.45169106132046   -3.77549470999242

