37
CSD_code = SIKSEM | q = 0 | S = 0 | Stoichiometry = C18H16MoO2 | MND = 10
Mo       -1.87496342595902    4.15485967024641    9.10124319974514
O         0.95020653254283    5.30640118436367    9.48245569605479
O        -1.63716290632959    5.73612079882863   11.72740080470341
C        -0.08314546003031    4.82854584581365    9.32379535915140
C        -2.50637703837339    2.33496736523527   10.46624337787829
H        -3.00732219502551    2.42575345469734   11.42346531609089
C        -3.92746245286574    3.88969699357465    7.88167741726888
H        -4.74711855142984    3.20371472724111    8.04258238429495
C        -2.99524550653873    1.45175592249629    9.41704914537946
C        -4.34726512714978   -0.00089534389620    8.12239040917549
H        -5.27924742367490   -0.52255823725288    7.95669786352885
C        -1.75236645479283    5.10534350844689   10.77335299001385
C        -1.93657089964739    1.27450648607447    8.49558626294850
C        -5.34060256111324    1.00121631198631   10.21870736363346
H        -5.08345196468710    0.54605856509638   11.17529086497252
H        -6.25330430634064    0.53739645008979    9.85241322048678
H        -5.53090038923606    2.05967642591785   10.39724366737841
C        -1.09594289788734    2.41635607183971   10.32763975898466
H        -0.37463845480980    2.55881525956464   11.12836151750528
C        -0.80733724571726    2.05137589430268    8.98657042329925
H         0.20288737754274    1.89147224331442    8.62689223012350
C        -2.88049633127824    3.70591179615963    6.96712091226402
H        -2.76465040473879    2.85577171149559    6.30972992364383
C        -2.71924695997272    5.83547906922709    7.79875023432931
H        -2.49895745112393    6.89696480961315    7.83778738832359
C        -4.22047657913069    0.81829936186078    9.23949534664509
C        -3.82742410589874    5.19425307258049    8.41335536593634
H        -4.57491489963742    5.68663685185660    9.02262212548149
C        -2.08091116654679    0.45869165404712    7.37854932765516
C        -2.11856331481528    4.89425525682369    6.92089998576525
H        -1.34350290076959    5.11932805465065    6.19913706196364
C        -0.95733809347606    0.26469638416085    6.40546162329767
H        -1.28755265247263   -0.31121150125796    5.54426747783646
H        -0.13407445296813   -0.26858349411657    6.88099512821145
H        -0.57313320609171    1.22474670655931    6.06007635749780
C        -3.30863813989793   -0.17572741483435    7.21939040777355
H        -3.45578798965942   -0.82979191681027    6.37160206075678

