93
CSD_code = SIKTOX | q = 0 | S = 0 | Stoichiometry = C38H48Cl2N2O2Ti | MND = 6
Ti        5.60032595473902    6.67828559079194   25.97691247262949
Cl        3.59965066863762    7.02996953789548   26.87816490055366
Cl        6.94920302293098    7.89554461996802   27.28662876460123
O         5.41606994801464    7.92957629362466   24.82199183855179
O         5.87614934920141    5.22853773839884   26.84508404566303
N         4.70560284020930    5.34770698633296   24.41972743306942
N         7.59888713219178    6.15799655856340   24.77080286780471
C         4.57774879404131    8.27489164535101   23.87678337002453
C         4.19864484880426    9.61685566506245   23.64970363916451
C         3.29624130391246    9.87607457854516   22.63274754125070
H         2.99152787970247   10.89326287237732   22.47036854808825
C         2.75756831583967    8.88311546790829   21.81628937236811
C         3.17430878291590    7.58043581656281   22.02506935757444
H         2.76823236444505    6.77859490816742   21.42737592262744
C         4.08079026583869    7.25923692309846   23.03262727488130
C         4.52361430979434    5.86852313331728   23.19139710253338
C         4.71250286872383    5.09977707539752   22.03747289332525
H         4.61775864368173    5.56159814063987   21.06785857495494
C         5.05338430701039    3.76699243013220   22.15528573615705
H         5.24757633593531    3.16706690948537   21.27795114845373
C         5.11357382781198    3.21174113851354   23.41747855998888
H         5.34263955490671    2.16662501149715   23.54807750696910
C         4.90593126630704    4.02053669642492   24.54115582843248
C         4.85155837795693    3.38212658723883   25.86065569550654
C         4.28530649223160    2.11100808544148   25.98100134562894
H         3.86005774726962    1.65962254028545   25.10011650328561
C         4.22189950921643    1.46861242035443   27.20031505245972
C         4.75179607435608    2.12767970112841   28.31284893293919
H         4.70500598888661    1.62506467837957   29.26315991676083
C         5.31718237068616    3.38625134100930   28.25791847142332
C         5.35453828735390    4.03892420933833   27.00216155226169
C         4.76701808997142   10.71831467137064   24.53734233216202
C         4.29721843523278   12.11377619724684   24.11103787961783
H         4.75323022092562   12.85664235347823   24.76202880003244
H         3.21807308089873   12.21074705819868   24.20241405735305
H         4.59443936153709   12.33654108701026   23.08824024308957
C         6.30239274812094   10.69457458209531   24.46702549712646
H         6.69868656617973    9.77343305011822   24.89233056549952
H         6.71046864393817   11.52711008406897   25.03591105322792
H         6.63725826450394   10.78225707819229   23.43382573941109
C         4.31213898378300   10.48361636150913   25.98511233978229
H         4.72163504346533    9.55397684179615   26.38326205777233
H         3.22627580911850   10.42918252151409   26.03759011154996
H         4.65311940062594   11.30040680401459   26.61799784692948
C         1.74245202617088    9.17746504248284   20.72050790924375
C         1.40062819750710   10.66588587427576   20.61201326968635
H         0.96128586016505   11.03414768647778   21.53571874925213
H         0.67498383143521   10.81262305582402   19.81436042414714
H         2.28300254766533   11.25539814192669   20.37418366558439
C         2.31196168849698    8.72080828328440   19.36951647829476
H         3.24641458686043    9.23794733341342   19.16134074404229
H         1.60827149696150    8.94501696946508   18.57061532701056
H         2.50374569192449    7.65147235587396   19.36118089785976
C         0.44706696190727    8.41182575951257   21.02403597425161
H         0.61528995000323    7.33871732623602   21.04079166587593
H        -0.30365060656937    8.62776620504275   20.26657173564970
H         0.05590581947838    8.70877682212019   21.99440361978919
C         3.59886052181941    0.09232503563557   27.38240375468308
C         3.07540720632492   -0.49469651565557   26.06857363304435
H         2.29764462854368    0.13399278710148   25.64190382812842
H         2.64692269662631   -1.47717852703832   26.25628159274875
H         3.87854954609076   -0.61233665920751   25.34454189879287
C         2.42009737364345    0.20188786646548   28.35931058714796
H         1.68340016489426    0.90615606908595   27.97939929625261
H         2.74598005394353    0.54593768462614   29.33662041058301
H         1.94202827521337   -0.76787089387268   28.48154337022165
C         4.65461776482018   -0.86958215631585   27.94579983082248
H         4.22934939838862   -1.86381997703815   28.06562461134703
H         5.01832465671476   -0.53785017804602   28.91394148243762
H         5.50287734766695   -0.93623421916797   27.26760399069245
C         5.85696200202546    4.09375800693286   29.49631222653680
C         7.32701993988154    4.48548822264102   29.27797496677601
H         7.90775549148463    3.62419849528555   28.94850143789636
H         7.75259775445066    4.85302656697972   30.20926773452942
H         7.40898201958749    5.28192866308867   28.54021661232738
C         5.02418331621723    5.35812512300476   29.75306630431304
H         5.13340097260291    6.07519948172020   28.93792580750979
H         5.35445506207926    5.83881672137039   30.67162674317494
H         3.96964457931266    5.10636046282968   29.84915803537203
C         5.78423752458509    3.21173996872060   30.74808608887458
H         4.75569292340146    2.95424414194189   30.98956318230575
H         6.19494045947283    3.75934976358858   31.59367429361729
H         6.36606001005070    2.30046719854064   30.62398661547738
C         7.96351704123906    7.05119861227708   23.85283612066733
H         7.18919269132977    7.37764342738873   23.16679929004667
C         9.25280396574286    7.54792139061049   23.74798855907244
H         9.49040213287275    8.28294464978777   22.99519183026170
C        10.21619668397501    7.09210118720330   24.63385330712348
H        11.22591093360193    7.47297973910282   24.59570103923781
C         9.85420114789586    6.13207185658610   25.56468436445427
H        10.57117541990204    5.73582616729501   26.26591485469524
C         8.53841727687215    5.69836802629631   25.59570707655635
H         8.21850088286330    4.94414696245821   26.30592406809438

