32
CSD_code = SIKTEN | q = 0 | S = 0 | Stoichiometry = C15H14MoO2 | MND = 10
Mo        8.20804664499642    2.48864140792934    1.42120085738578
C         4.82392762307903    2.08519489825815    1.26876420124049
H         4.38471166059067    2.15841544390096    0.28242515828520
C        10.02234189283042    2.71226415809391    2.00176609454869
O         9.62637272664715    3.17408032466982   -1.21081611851810
C         9.09439224238299    2.92356179142227   -0.22313009571197
O        11.11115437860358    2.83571371378069    2.34901021668610
C         6.63622354614593    1.32396248221454    2.75982100802272
C         8.00315415276313    0.19956341327420    1.28215438015231
C         5.92889631215958    1.82957084208817    3.87139237190453
H         6.33174285555048    1.70795992356215    4.86841176457818
C         4.71650967592764    2.43264028429085    3.66601010163747
H         4.15637374817071    2.81413893855364    4.50719499928569
C         7.84314139829725    0.57567710414818    2.64643555575598
H         8.40888583595919    0.16307152817724    3.47251071252736
C         4.16758379254944    2.55935670884008    2.37336313751127
H         3.20335420943652    3.03376594475679    2.26342845213863
C         6.94522620641848    0.78481517859902    0.52937989737779
H         6.72138025477779    0.55527072709436   -0.50495458338649
C         6.07514722709924    1.45448630717063    1.43719907788712
C         8.97794728876977   -0.81761916409921    0.76839615136698
H         9.90386001440840   -0.79039383388461    1.34227733148576
H         9.21113755688910   -0.63453339768540   -0.28014141347505
H         8.54709736127016   -1.81822938863199    0.85615666407081
C         7.53941067700177    4.56700914018896    0.58705883036025
H         8.33529027559584    5.22891552371558    0.25615076355168
H         6.65956494863982    4.60376774404163   -0.04861140126674
C         8.47151783828007    4.35848932339524    2.79800095459036
H         8.30894240671200    4.23488044016926    3.86474362202504
H         9.30793756170442    5.01212992239330    2.56488449348595
C         7.32500581920747    4.43325872678977    1.97644986608174
H         6.31962186713559    4.38027384278241    2.39536694841463

