34
CSD_code = SIKYUG | q = 0 | S = 0 | Stoichiometry = C12H11AuCl3N5O2 | MND = 4
Au        1.15872477675102    1.35979691216713    0.53724948663337
Cl        1.35428047858433    0.30143132898074    2.52019392114173
Cl       -0.54318357342426    2.67403047412160    1.25289924230688
Cl        3.74669971022758    2.34014206008672    1.42957413644512
O        -0.24710529940912    1.33838531859415   -5.71619276418450
O         2.61392254351459   -1.57167838876838   -3.76759885663411
N         0.27853719094594    1.69445602241664   -3.53847050871249
N         1.15630040490172   -0.13834171760846   -4.73020905029651
N         0.82232534028450    2.07206352030697   -1.31306812863301
N         2.58473668413375   -0.18699518457683   -1.46512090311294
N         2.61349917054765    0.21182745125244   -0.27504787622045
C        -0.55644206233198    2.88583811129608   -3.55851977866375
C         0.36176158188058    0.97424839965058   -4.74080860629205
C         1.25897775508595   -0.91259479096875   -5.95902903628681
C         1.91934862205803   -0.59110695334574   -3.65691673511692
C         1.78151320002123    0.19164041613731   -2.42640709698786
C         0.91172450411806    1.33974011056300   -2.38951501592210
C         3.67658430925018   -0.20700666728093    0.53209677638531
C         4.27713560258174    0.69561364199219    1.41089986558290
C         5.30846723863835    0.28953926285489    2.23695832347650
C         5.75312993691558   -1.02106531782145    2.18149395076012
C         5.18364579496687   -1.91607330551933    1.28958351774715
C         4.15210167959919   -1.51402346737293    0.46421347653466
H         0.22575623401784    2.88721330410337   -1.34567997970480
H         5.75614608286810    0.99882628919679    2.91438424004526
H         6.55003987079514   -1.33898842042376    2.83536355165552
H         5.53854812262642   -2.93354112004564    1.24034023538675
H         3.68965986467438   -2.19251274428487   -0.23546843795707
H        -0.99733160889136    2.95273147382501   -4.55175299270222
H        -1.35331901381190    2.80717246899676   -2.81758027919195
H         0.04315400807517    3.77819214128303   -3.37371955452455
H         0.51140211402811   -0.55004044489776   -6.65883726399716
H         2.25668518812543   -0.79980285789558   -6.38255866588192
H         1.09517354766589   -1.96371732703232   -5.72764919305751

