14
CSD_code = SIKYOC | q = 0 | S = 0 | Stoichiometry = C5H5AuClOP | MND = 2
Au       -0.94699873996947   26.09933315071999    3.68688282102559
P        -0.28093360163139   24.33823155940033    2.41904034355020
Cl       -1.46014875424364   27.85227252064635    5.01383819175603
C        -1.06336140238706   23.04702029388239    1.59274420224506
H        -2.14375800089295   23.08999838110936    1.53870544743939
C         1.84521250407477   22.78907433560673    1.64786512149841
H         2.91300017144956   22.62323997480999    1.63107224446196
C         1.40580893337344   23.92631444249927    2.31565141286520
C         1.00354833615094   21.88320559002096    1.02944359741834
H         1.45138761265595   21.02984690553598    0.54175272763810
C        -0.38023562377566   22.00378829241095    1.00324010063581
H        -0.95432026774393   21.24008538477262    0.49769776238585
O         2.33117711906192   24.72506162027774    2.88207368058042
H         1.92332171387938   25.48152754830664    3.33189234649091

