53
CSD_code = SIKZUK | q = 0 | S = 0 | Stoichiometry = C29H20CrO3 | MND = 9
Cr       11.15376553695747    4.58707544650563    9.63093318102411
O        12.00013290612171    1.80563196221623    8.96646195719423
O         9.37620350724070    2.82636235759724   11.24632821261747
O        12.44738520430749    4.56746193858708   12.31623559851673
C        10.92059335857203    5.34051317732256    7.54531980637079
C         9.66282975195246    5.50718898469287    8.11900661798316
H         8.73268723570142    5.13073024413458    7.71910522602519
C         9.76470589464189    6.39658875300775    9.23975230756898
C        11.10256882906557    6.76812718011702    9.37985781256773
H        11.47638223912297    7.51166048864206   10.06754764604840
C        11.87095026286132    6.09722754966417    8.35356001878143
C        13.15572015094788    5.61248389363465    8.55903169789816
H        13.54058210253158    4.87552237993825    7.85862593105007
C        11.24011198570508    4.61911767477414    6.31813250527402
C        10.54878550434552    3.45605601509053    5.97373567414427
H         9.78978818990030    3.07147278035714    6.64067798728489
C        10.85228201016178    2.78112811252958    4.80809789426174
H        10.31564009617865    1.87837153737670    4.55680847736044
C        11.84731242813027    3.25261312465519    3.96614612436736
H        12.08505035818974    2.72078468518475    3.05718244033803
C        12.53631612064929    4.40757422665109    4.29563665540389
H        13.31003719408314    4.78168919737986    3.64119849744439
C        12.23629128623316    5.08839820854581    5.46050140741100
H        12.76520764534887    5.99973855412570    5.70396476258617
C         8.64481792574359    6.88714359447566   10.04286494315525
C         8.81171928135557    7.13357001716538   11.40576183403244
H         9.76512201443591    6.92503244311222   11.87149311651953
C         7.75947849905444    7.60705493283161   12.16496888182933
H         7.89899386857321    7.78791293358093   13.22037120204086
C         6.52624975774701    7.84287276451220   11.57850013859576
H         5.70436630401063    8.21109305364337   12.17401206566758
C         6.35014530108824    7.59978702390968   10.22696132763151
H         5.39072572965319    7.78122358894277    9.76515596488794
C         7.39966258939170    7.12414917401319    9.46316827016106
H         7.25809840679878    6.95018556973292    8.40609463213914
C        14.14041751008793    6.18181700938780    9.46534355053320
C        15.09113383888222    5.34294169778783   10.05489964018133
H        15.06510282891188    4.28468422977798    9.83943051571583
C        16.02698276159673    5.85849829073754   10.92884566938089
H        16.74949572450349    5.20033436506910   11.38816683604315
C        16.04820116682421    7.21033728708349   11.22178897586898
H        16.79100556729234    7.59477274410334   11.90237196251721
C        15.13052062096163    8.07711891462082   10.62728454486030
C        14.18916593997106    7.54547117205767    9.74854698115782
H        13.50210674977257    8.21676823052724    9.25105914370492
C        15.11644043938083    9.51412704296385   10.87999993954588
H        14.44072396993382   10.07620605384821   10.24569874247389
C        15.82194680605932   10.16339327856449   11.79759248031469
H        16.49917439435969    9.66709498088954   12.47096351386518
H        15.74047193500504   11.23044730978388   11.91433239891005
C        11.71625116873668    2.89622811748460    9.20575218272800
C        10.02515444557906    3.53518443940378   10.60506239801237
C        11.97979465533835    4.58703126726040   11.26455970800334

