60
CSD_code = SILCIZ | q = 0 | S = 0 | Stoichiometry = C26H25N3NiO4S | MND = 4
Ni        2.83160832806106    5.47507564216486    7.14289951525292
O         2.34865081184099    6.04660596183778    5.47816210414527
C         2.84112883311247    7.23872062893232    5.16500109025596
C         2.61372433461924    7.85540054598849    3.93570157123127
H         2.02687904865381    7.35002593063460    3.18300140089044
C         3.15309300744984    9.10491515844969    3.69964839810616
H         2.97830157377848    9.58785821707726    2.74945510441229
C         3.91459697048392    9.74576906825201    4.66671368828655
H         4.32508785163401   10.72362492518593    4.46516741335257
C         4.15839152448264    9.14411224350863    5.88788812117739
H         4.75622635494105    9.66078171601070    6.62296522789216
C         3.62673149843120    7.88518265591658    6.14320307959489
N         3.76472540869087    7.10831484330661    7.30521666579352
C         4.47169979283663    7.49338893209991    8.33273712888977
H         4.97692673474703    8.45271557904236    8.28822922873470
C         4.64717094312919    6.76292206772670    9.52563228481405
C         5.47658417412770    7.34695677688920   10.58092429884281
O         5.72726173355482    6.84196465778199   11.65301382551933
O         5.95672410968221    8.56841781055514   10.24024025513831
C         6.79366853053837    9.20991215920952   11.19719023071316
H         6.73659521654814   10.27356867335301   10.95417191345797
H         6.38858908745807    9.03423147393875   12.19947550583652
C         8.22843229150036    8.70609945515814   11.11879415324625
H         8.84979874030103    9.26434291989702   11.81336599760067
H         8.61766409636992    8.83161231195092   10.11100266731408
H         8.26271014409384    7.65210487259912   11.38262654293324
C         4.03616956191672    5.49637310993343    9.68434291478615
C         4.19973382249456    4.70260718896129   10.94817932910810
H         3.84451050310370    5.27615879211173   11.80044805360919
H         5.25143014276298    4.49036048601160   11.12355701017062
H         3.63839766520633    3.77570295793639   10.85670274745235
O         3.32389512975758    4.95057197924418    8.79405094502705
S         1.69820320289685    3.47085046307876    6.98568281723052
C         0.87507922333193    3.15123766646189    5.54351190401378
N         0.93828623884149    4.01540871798282    4.52228925947881
H         1.42707820204639    4.90834972390981    4.73606393176907
C         0.41192496313606    3.89616953276935    3.23210687748357
C        -0.08473951705727    5.04931476369932    2.62504428506053
H        -0.07380653448435    5.97747138809611    3.17626418138356
C        -0.58877880310517    4.99845989565257    1.34050298004942
H        -0.97380725738845    5.89626140672618    0.88101516158494
C        -0.60173308392493    3.80106121095914    0.64225688109243
H        -0.99790695224279    3.76204162417270   -0.36063220912489
C        -0.08873614061645    2.65866165274208    1.23176941700435
H        -0.07379763700511    1.72752849021598    0.68532251132813
C         0.42084839720534    2.69850535060043    2.51782350394737
H         0.86405931139108    1.81167473157731    2.94631051154210
N         0.07557588027223    2.07102785112113    5.39778350986797
H        -0.55662097495648    2.12257003719544    4.60505792837941
C        -0.15906019688182    0.96888160712129    6.22583492056139
C        -1.36149647707485    0.28717702721390    6.04055420736758
H        -2.06889028539585    0.64252342362932    5.30339826799640
C        -1.65442098683221   -0.83232872187186    6.79423951931662
H        -2.59198230378392   -1.34654374504939    6.64468014697655
C        -0.74879804402605   -1.29224467476956    7.73597521341450
H        -0.97780396242809   -2.16566559898494    8.32697476468984
C         0.45353228563883   -0.62806963168404    7.90690315725818
H         1.17013998552979   -0.98762394933152    8.62952332962618
C         0.75729954410027    0.49428949614920    7.15749529381369
H         1.69894395649144    0.99601051896519    7.29313931327856

