68
CSD_code = SILDUO | q = 1 | S = 0 | Stoichiometry = C29H33AuN5(1+) | MND = 2
Au        1.70872704702093    3.66606107411798    1.75288082537178
N         2.07236049241880    6.64994380703369    1.43045233317715
N         1.12348246394764    6.18018156760597    3.33184215940197
N         2.70769345650200    1.01059875591504    0.65100072628219
N         0.78647570129499    0.78499096621380    1.51242591501653
N         1.11047566016063   -0.42289916811160    1.03151191454143
C         1.63782889092590    5.64451291838097    2.20993045057898
C         1.83623032216983    7.85974581503784    2.05160613630038
C         2.07990935433201    9.17800086698371    1.68344736215192
H         2.54113044924209    9.43588244996716    0.74528242530736
C         1.70683698426163   10.16863146619870    2.56664396685266
H         1.88300376644629   11.20054437846411    2.30757917709400
C         1.10659888231352    9.86686728402926    3.78827140986665
H         0.83110107198274   10.67081315261311    4.45215149901582
C         0.85658226820629    8.56459639329375    4.16519148237857
H         0.39129466555633    8.35591511862442    5.11351937053663
C         1.22519904902519    7.55563651499105    3.28281258887570
C         2.69606805455922    6.45181807678043    0.13414660565924
H         2.72330293799902    5.36453262409456   -0.01570477862855
C         1.84978747068272    7.06313213235412   -0.97925114443048
H         0.83335219916361    6.67850639059163   -0.93343653192420
H         2.27632375740371    6.79304988769023   -1.94069731013224
H         1.81276898665214    8.14551193180809   -0.90846822496384
C         4.13181662325051    6.96943612099592    0.13567284132101
H         4.17097501418504    8.04747150033407    0.25346133719362
H         4.60587255280644    6.70700033113419   -0.80506500208178
H         4.69592292773251    6.51277719196008    0.94588819022429
C         0.55021491404515    5.39464807441074    4.41097090633602
H         0.63369655207648    4.35090802157430    4.08282045078995
C         1.35682404543194    5.55756335179689    5.69673219901360
H         2.40349077397328    5.32043397242697    5.51831005427153
H         0.97206653034903    4.87749544483841    6.45136159463379
H         1.29483929445206    6.56967558551659    6.08364914037637
C        -0.93060429400544    5.71523406456832    4.59800221582327
H        -1.07979630521454    6.72161035277743    4.97548199605334
H        -1.36347082654292    5.01542757264587    5.30723322947180
H        -1.45998593954459    5.61986281059536    3.65238700842741
C         1.73572775142355    1.69495289074576    1.30070578363628
C         2.28143796607702   -0.27253198667338    0.50557324941695
H         2.83604681419075   -1.04896443386250    0.02158384451473
C         3.94955301738262    1.56017083402024    0.17621476964533
H         4.56558422313646    0.73048095767053   -0.18595785794278
H         4.47261470529326    2.02873031738899    1.01680766690244
C         3.77631092925091    2.57502450001075   -0.93366034372547
C         4.83467514374414    3.42867394406768   -1.22142442445849
H         5.74100292835257    3.37058988213432   -0.63689290983663
C         4.73984885659218    4.33566740828886   -2.26089971763685
H         5.57826407442170    4.97566324885764   -2.49040139949949
C         3.57875210586567    4.41191901613413   -3.01278519522675
H         3.50640607637471    5.11458703709698   -3.82870933869663
C         2.51848151100641    3.57119273644942   -2.72462242612822
H         1.61326082454742    3.61922296975418   -3.31001273312181
C         2.61888339421008    2.64993783116875   -1.69523578573669
H         1.78911036509197    1.98530808950112   -1.50186611236608
C        -0.45543932786625    0.94832806650880    2.22571060378780
H        -1.21200794295144    0.35327949936848    1.71080841503200
H        -0.72814803817398    2.00660469355723    2.19116946117079
C        -0.31291039285261    0.47795169272355    3.65549323725660
C        -1.02721836673661   -0.61964500043619    4.11235314188553
H        -1.69632479360334   -1.14101238353503    3.44458613786886
C        -0.88548204099937   -1.04666941857645    5.42185672592626
H        -1.44674369575386   -1.89976174287490    5.77010325526931
C        -0.02429380681138   -0.38515732239298    6.28012630947924
H         0.08687400115059   -0.71968976000649    7.29984466591684
C         0.69847550067508    0.70577297145185    5.82626074036845
H         1.37555172922501    1.22228702121031    6.48988451791854
C         0.55501292887782    1.13410448487634    4.51922478619342
H         1.12589776355916    1.98166315509047    4.16211641205028

