59
CSD_code = SILFAW | q = 1 | S = 0 | Stoichiometry = C24H30AuN4(1+) | MND = 2
Au        8.36408968750396    8.69721219750350    9.50616524829406
N         9.89739754383568    6.62157345677372   11.08160266504129
N         7.79447927403667    6.08218444498022   10.94569581545997
N         6.94695996403786   10.90741259626900    8.01095614491207
N         7.11760176474964   12.08396126296032    7.33694973023451
C         8.70366763441363    7.01246112205697   10.60117545404553
C         9.76613339647049    5.41854468321471   11.74463644757681
C        10.67196627970253    4.59606013734706   12.40438431511165
H        11.71760148587031    4.84104543791610   12.48321598270324
C        10.18942880479373    3.43344133303080   12.96687147087960
H        10.86959996006407    2.77505107469941   13.48364426712044
C         8.84164069439042    3.08825116494155   12.88105881680655
H         8.50384333934287    2.16876965655762   13.33232659124962
C         7.93228840231666    3.89406459659787   12.22928799430756
H         6.89637451259553    3.60479122111586   12.17447245221757
C         8.40509491619433    5.06940045916001   11.65733302197754
C        11.12010020689529    7.38716588881873   10.91427028643085
H        10.82257242540061    8.28047881602058   10.34958697071057
C        12.14148326333317    6.61237726027288   10.08507207378866
H        12.48596853981164    5.72286112837016   10.60277111770764
H        13.00079231292780    7.24609351215710    9.88495938321386
H        11.70549832736806    6.31161726634971    9.13466621310702
C        11.67146079471467    7.83725904342589   12.26514397067821
H        10.90768941787669    8.37400853800956   12.82392610697471
H        12.51462704908385    8.50380337430173   12.10779497569094
H        12.00759259977914    6.99565435979441   12.86223094742255
C         6.38625673783401    6.17247478595900   10.60651775478741
H         6.28771488906670    7.11472150457247   10.05053778194169
C         5.52619194101673    6.26547754190032   11.86493199546797
H         5.57205192560667    5.35208548848035   12.44913070337319
H         4.49125533025968    6.44119968339798   11.58532370413139
H         5.86112329597194    7.09094850960148   12.48933385722860
C         5.96895158589200    5.02579553777579    9.68861538415359
H         6.60829565181710    4.99605777586611    8.80896362623540
H         4.94253843592841    5.17443267874274    9.36526110867647
H         6.03295787472818    4.06677553259831   10.19246292019037
C         8.09211765368838   10.36965066044356    8.41255695061355
C         9.10051594708762   11.24558093036311    7.92471686647159
C        10.49751914483562   11.22359825643874    8.00388014827967
H        10.99719312744447   10.42179398448324    8.52502101750454
C        11.19770939706796   12.23878588100985    7.40275814143466
H        12.27553701605285   12.24848305471905    7.44579847574122
C        10.54055753505622   13.27561843086634    6.72308025889938
H        11.13133769788014   14.05239042103597    6.26294258425536
C         9.16970831327387   13.32743658266818    6.62735482477109
H         8.67335863645737   14.12711170746154    6.10125237543500
C         8.45317479129638   12.30199965363846    7.24043421995477
C         6.07718573091180   12.74942751396287    6.59218015403746
H         6.12487882778643   12.43153115506506    5.54166102053826
H         6.26992107976105   13.82459056337160    6.63260319600742
C         4.70597792453047   12.41867735479508    7.16751943919812
H         3.93725192774168   12.79536640249969    6.49507409283621
H         4.57653865466399   12.90352550244638    8.13696033921046
C         4.59451351161801   10.90677534417314    7.32790287391036
H         3.59984670611451   10.62564043444277    7.67123160611833
H         4.77439714243899   10.41629565194176    6.36919328808233
C         5.62284978147215   10.44721233145006    8.35429670283374
H         5.35710529241060   10.84387301652874    9.34226002080088
H         5.65741389476939    9.35812209466602    8.42314410321807

