49
CSD_code = SILMUX | q = 1 | S = 0 | Stoichiometry = C22H21ClN3RuSe(1+) | MND = 9
C         3.45506204872149    1.93814850712799   12.81436953227812
H         3.36185397047787    2.90415881089210   12.34171346765618
C         2.50664892264047    0.95395373115892   12.57796327018777
H         1.67599561868263    1.15655098205950   11.92007903240002
C         2.62523590761205   -0.28760015430661   13.18060256217972
H         1.88807351655701   -1.05290510289926   12.99422084116480
Ru        8.03759227500706    1.02086288725843   14.31857912856684
Se        6.13216942993691    0.04324009371706   15.43788898658348
Cl        8.90243413588011    0.43047759413853   16.43237980042025
C         8.27219662059642   -0.51711752094707   12.64141806510097
H         7.86728667873212   -1.51694154892403   12.52299982709515
C         4.63476823985919    0.44044736884658   14.26498076046141
C         6.60886486838695    2.69852973650992   16.33271027031070
N         7.47715466419236    2.63956504319971   15.29090170647238
C         5.85394933059879    1.49766268730488   16.76501541525653
H         4.78194542337207    1.68688249496355   16.86577477538928
H         6.25284286204602    1.10843712721384   17.70743572319012
N         7.55653680952795    4.62010346607643   15.99791991186849
C         9.52900250553988   -0.33110520834551   13.22574675986299
H        10.09560171851853   -1.18532668942703   13.57898143063177
C         7.55626395660072    0.59761466571029   12.12555882463989
H         6.61288997500774    0.44161477725999   11.61376513348342
N         8.03212129246356    3.78800950686455   15.09922462093410
C         3.68963556828455   -0.54952943319360   14.02737461173528
H         3.79307320664724   -1.51201221260909   14.50898429093113
C         6.65946383296766    3.99845725010272   16.78857497736245
H         6.14559139499504    4.48935830631011   17.58751261122351
C        10.10527226304298    0.96489677976115   13.28277304536415
H        11.10518142364074    1.09199002223362   13.68110007370144
C         4.52464017610828    1.68291975199773   13.65322284496863
H         5.27561683423639    2.44442201874090   13.83016138126042
C         9.40647424390001    2.06184948094120   12.76781717769685
H         9.86507290553805    3.04403582297343   12.75625779412277
C         8.11958701687643    1.87942296089290   12.19219938004922
H         7.61291843759332    2.71996812093017   11.73197840694909
C         6.82843212812463    6.80913415763081   15.27820048637540
C         6.15041689932372    7.83123723089355   15.92475094318137
H         6.40025140086223    8.08485372464394   16.94436217593409
C         7.90593133779152    6.01771013791282   15.98669415384806
H         8.85767155298586    6.10482753041360   15.45668635368672
H         8.02879971498480    6.36393193085798   17.01460561224563
C         6.50396456421029    6.49192119451123   13.96469951301084
H         7.03797670121242    5.69674866550675   13.46241806199460
C         5.51256929205069    7.19384501631292   13.30398018685378
H         5.26738049706768    6.94680074166538   12.28223769777352
C         5.16334427565539    8.53848939628742   15.25848562296924
H         4.64547404412885    9.33867397475579   15.76369979811146
C         4.84177128884069    8.21921770214040   13.95073006104864
H         4.07179822784932    8.77026647189088   13.43376289154286

