96
CSD_code = SILROX | q = 0 | S = 0 | Stoichiometry = C48H34F6IrN3P2S2 | MND = 6
Ir        2.13169412207602   10.57654827188984    4.07361674855057
S        -0.44595252624623   10.42322289123807    4.48631133681069
P         1.88125427490651    9.72173052506818    7.62594394051226
S         3.01499427212927    9.16932932352087    6.08690878579859
P        -0.55283182697865    9.33438346124105    6.14967094485598
N         2.40309698548938   12.24088697091962    5.16281160357412
C         4.08176485149315   10.90114442920336    3.68374814097685
N         1.89888163070470    8.99226545674967    2.86271685430669
C         2.20101780911640    8.57909386067280    9.01457800537699
C         4.62502174218929   11.98737907418037    4.40203417577955
C         1.21318122715921   10.66902088691934    1.34422956279328
C         1.59944943495616   11.53958147008657    2.38445177338504
C         6.29508944852222   10.44843142704137    2.83591419096837
C         3.65917014040240   12.74892182971588    5.18540503690397
C        -0.24599297470738    7.57886386133256    5.73644766955498
C         4.94148251800166   10.14292033998817    2.89973215897355
H         4.57179510137680    9.30451359463398    2.32747618280966
C         6.82653743120766   11.50795792123796    3.56073077498953
H         7.88195125563067   11.72564663732638    3.50818999393206
C         1.65547150542448   14.05550332783488    6.51940529790624
H         0.83369397671744   14.53968343760264    7.02070580194888
C         1.48088808958441   12.90748963825457    2.17123467652837
H         1.76643236893569   13.61257363444900    2.93789460936386
C         2.15127487247304    7.72925777363096    3.19868435536997
H         2.58377897051906    7.56482575561466    4.17603863168297
C         0.71600882120644   11.16867758779101    0.14181709067560
H         0.41329660727892   10.50154045726155   -0.65006365864965
C         3.94413531232327   13.91739219370077    5.88570111749829
H         4.94860167419111   14.30717236079057    5.89067444950883
C         1.08719711349757    8.21431929543200    0.75421883377868
H         0.66582792034682    8.43753448777358   -0.21198020729420
N         0.27591316124839    9.84537669261102    7.44430143318612
C         2.61006710559680    6.91603473283553   11.18276156486221
H         2.76900168442871    6.26378927334770   12.02896869643063
C         0.98542769771249   13.39329479945194    0.96969571626330
C        -0.60251277809860    5.75708189658136    4.21932663828855
H        -1.03770921608017    5.36723533254979    3.31068768640198
C         5.98675477302077   12.27598739242958    4.34085275104315
H         6.40197546483302   13.09587933093830    4.90622370586541
C         0.60083404051427   12.52931795854838   -0.04985647211689
H         0.21360118771454   12.92640665054703   -0.97555590976217
C         2.93656385592909   14.58307210157835    6.55715736126989
H         3.14287585133351   15.49661085601555    7.09285756924482
C         1.33597301269794    6.90486759054667    1.11841326344783
H         1.11015215544231    6.09383771516154    0.44303187043915
C        -0.80114137513292    7.07992229869336    4.56445717793871
H        -1.37825322131869    7.73801032275738    3.92851089494215
C         1.29231191443546    8.57636793493031   10.06505757124359
H         0.42700504921382    9.22259874132690   10.01242789534456
C         1.43961157591667   12.88587518169995    5.81670150833484
H         0.44741061548201   12.45670000311617    5.76486617326974
C         0.50344596053557    6.75369313770403    6.55905170976372
H         0.92660093083324    7.14609759578002    7.47462402216409
C         1.89274461415408    6.65879790585992    2.36438561106918
H         2.12332572189949    5.65792655587570    2.69052034061960
C         0.15697597979665    4.93460867721557    5.03705908610291
H         0.31628782791766    3.90166661855082    4.76387683099619
C         1.49667525873229    7.74150845011772   11.14717419440673
H         0.78968359670209    7.73313882117864   11.96401179008971
C         0.71063887443872    5.43271140572227    6.20468280797068
H         1.30279534407922    4.79368211304058    6.84322864733035
C        -2.26269644400292    9.32734501387008    6.75246793234637
C         2.42348953316635   11.28808019301152    8.38641962013948
C        -3.26995806234963   10.02886652370272    6.11016089080545
H        -3.03759576261929   10.59800234024813    5.22066638522027
C         7.18812453071752    9.58245197979107    1.99606723283500
C        -2.53878844656033    8.58730723486743    7.89521768783330
H        -1.73862259229083    8.04578675897144    8.38139130067362
C         3.31660917020204    7.75610157602796    9.04931177477684
H         4.01049509261152    7.76356855850308    8.22039846431346
C         1.51057039992731   12.08448614611684    9.06251014055428
H         0.46522063296734   11.81238403769374    9.05032149229474
C         3.77059545506322   11.61981344394979    8.37323863950542
H         4.46830566291683   10.99035792975460    7.83634499150404
C         0.87696519405684   14.87194701353584    0.73569794523466
C         1.38729880945075    9.25052337031957    1.63482647395624
C         4.20408193871025   12.75300294683066    9.03654682221021
H         5.25209238130381   13.01432274569055    9.02707605793907
C         3.51743257761148    6.92350552654384   10.13617821567434
H         4.38346401957230    6.27853635040713   10.16531677833639
C        -3.82533755905466    8.55670443198575    8.39754813664613
H        -4.04483593625286    7.98380782835281    9.28688971405063
C        -4.55753268342266    9.99513960592082    6.61718148324558
H        -5.34502531585213   10.54317380783444    6.12099454052522
C        -4.83448864764001    9.26082664759199    7.75797766389180
H        -5.83998172514110    9.23581390851387    8.15198860117865
C         1.94981824275285   13.21348967418868    9.72836655528098
H         1.24364360693221   13.83416808039077   10.26056898105095
C         3.29515353224634   13.54570422567143    9.71809501704261
H         3.63637991605094   14.42526539706353   10.24417961965343
F        -0.29633364961947   15.22407972223763    0.17861732879154
F         6.62355798338029    9.23414530022386    0.82564285954917
F         7.49886290660204    8.42109990747276    2.61036903558008
F         8.35990369058782   10.16128404808995    1.69060592814670
F         0.99499396312996   15.60341223890132    1.85457813807902
F         1.82968877083318   15.32628521601899   -0.10581346464945

