119
CSD_code = SILTUE | q = 1 | S = 0 | Stoichiometry = C61H51ClO2OsP3(1+) | MND = 6
Os        1.23576505086191   -2.91351212147080   -2.55082059608780
P         0.24003658420201   -1.09083873679351   -3.76969895276707
P         2.23138510303803   -4.86113542515665   -1.55375152685735
Cl       -0.59777758296921   -4.33823004372271   -3.11059401851296
P         3.43073768894213   -4.02473741923219   -6.69097358557584
O         3.40869020959679   -1.15722622276546   -1.40047777646587
C         2.11191226295599   -3.56336322283743   -4.33903537065447
H         1.58817919187592   -4.44204826700132   -4.73980043752610
C         1.24233281206611   -4.81468954511552   -8.25698244183930
H         1.41399594223402   -3.92935993566116   -8.85230686537356
C         4.83563694118819   -5.16007363435024   -6.58586755235684
C         3.11868617384146   -3.14972967204509   -5.13686581672509
C        -0.31669637747255   -1.26000703670023   -5.49864248998766
C         4.01270834143367   -4.75427940664306   -1.16125142960189
C         1.39914159629366    0.31255300988668   -3.80345685428795
C         4.00363298211702   -2.02312494193502   -4.87031295221508
H         3.66324845228811   -1.35594267419451   -4.08881208408591
C         2.05160948176866   -5.09333887110930   -7.16134923122404
C         1.55756367491835   -5.23829057086647    0.09678008867427
C         3.63064561791905   -2.81895321328910   -8.02210349262859
C         2.61870936058701   -1.82181255074178   -1.91281436008812
C        -0.60905130843711   -0.10094244206247   -6.21807348141700
H        -0.45277841408675    0.86816141489118   -5.76508724100176
C        -1.30308063692595   -0.38475164846014   -3.09681834421931
C         2.17271307264954   -6.43156648164478   -2.47445631411599
C         4.85341959924049   -3.96011645397739   -1.93369435320205
H         4.43560227060950   -3.37425358112301   -2.74070869967423
C         6.21055472454150   -3.91533783340215   -1.66859404790843
H         6.85380445573313   -3.29053597670119   -2.27083870972260
C        -1.51344092569161    0.98049400655216   -2.93200742529418
H        -0.72904297880465    1.68908459213028   -3.15599850091459
C        -0.57408021543304   -2.50291669955186   -6.06263902746413
H        -0.39882810867263   -3.40294534247474   -5.49265535861742
C        -2.33679503951304   -1.27983471641977   -2.82828090653980
H        -2.18416345503968   -2.33948378746799   -2.98314402948733
C         2.66287157092063   -1.81800975727208   -8.08443849232141
H         1.85861856377584   -1.81109253701986   -7.35920666014796
C         0.21491227106205   -5.68275822568403   -8.58411247223772
H        -0.40632392004103   -5.47495167930447   -9.44247481328637
C         0.92429708277480   -8.31439061851687   -3.30264845495552
H        -0.01375995018813   -8.84084111794182   -3.39868243551138
C         5.08413977309413   -6.02679013583839   -7.64834484080073
H         4.46255974501015   -5.98561734556382   -8.53328206316926
C        -0.01571903010168   -6.81348325829568   -7.81766430992797
H        -0.82470123897399   -7.48068002628998   -8.07232350804262
C         0.04730813319783   -2.60725381070114   -1.07117563786228
C         2.13821340860970    0.65933426173304   -4.92905502429346
H         1.99525577406241    0.12720826822805   -5.85845035359952
C         5.15958870178908   -1.78019337292619   -5.48125647716527
H         5.52482701303458   -2.45299225098559   -6.25258761646899
C         1.62785345725724    0.98093442113167   -2.60066847225520
H         1.07376738223139    0.68640805667517   -1.71717488532445
C         5.60451118146021   -5.22530426841641   -5.42930832054355
H         5.39508293151417   -4.55812944527307   -4.60577328684174
C         4.67341883999870   -2.84996269108456   -8.93882220616845
H         5.42876326267568   -3.62124650102379   -8.87946049150249
C         4.54973756750014   -5.51259805159646   -0.12467017909760
H         3.90605140152247   -6.13852593722608    0.47670886162495
C         6.04137528073885   -0.62258949725924   -5.17276887761490
H         7.02860406426751   -0.96784949914202   -4.86623987782098
H         5.61689842549483   -0.01140331565953   -4.38034225504087
H         6.17647485066586   -0.00700445535151   -6.06214020415622
C         0.96397417778843   -7.11078539049641   -2.62199270709348
H         0.05507712486407   -6.69149096058366   -2.21681615395596
O        -0.79552735766527   -2.53729766325724   -0.30747810231785
C         6.11904531766914   -6.93839274277448   -7.55639151091361
H         6.32074967934898   -7.60711344234623   -8.37916566443122
C         1.83724570664098   -6.24570539816589   -6.40589704667097
H         2.49022295926490   -6.47598125208177   -5.57448475193543
C         3.32697306344030   -6.95518795400459   -3.05321104583994
H         4.26659835570493   -6.42892745352829   -2.96368789234668
C        -1.09315767227590   -2.58565604590925   -7.34421799236040
H        -1.31142311929690   -3.55427560893702   -7.76739595481713
C         5.90635186597876   -5.46177886348151    0.13924536989339
H         6.31549562626732   -6.04669709034821    0.94897571957420
C        -2.73609855427685    1.43571841867819   -2.47117635277200
H        -2.89294109608339    2.49574747981026   -2.33810030564697
C        -1.10572969166428   -0.19221586186778   -7.50359058118452
H        -1.32412034357096    0.70772377351603   -8.05900441669413
C        -3.75416856420119    0.54192446952581   -2.18333715582069
H        -4.70355297951147    0.90479601855652   -1.82013378405907
C         1.59521285377973   -4.18011458533719    1.00544412082089
H         2.00308862944011   -3.22509332387265    0.68889177040475
C         6.73846947113338   -4.66362013658181   -0.62947076497762
H         7.79590315786584   -4.62389496717337   -0.41673678484610
C         0.59404338607546   -6.63475387056802    1.79301293453242
H         0.20665809130169   -7.59433591430848    2.10092785058355
C         3.27764476942153   -8.15667749729673   -3.73814751980895
H         4.17930975636126   -8.55708417415881   -4.17900140713899
C         0.61699875072547   -5.57762255677065    2.68594460400904
H         0.24124147544078   -5.70964479948634    3.68887678907079
C         0.79656489699653   -7.09475386248403   -6.73018399676749
H         0.62453774745100   -7.97764226255734   -6.13479554584716
C        -1.34519434143181   -1.43521148997496   -8.07075853627301
H        -1.74653703898816   -1.50266823687824   -9.07073349187795
C        -3.55486761011561   -0.81656346787143   -2.36859730680698
H        -4.34866206456505   -1.51632167380182   -2.15528402482595
C         2.08005349051154   -8.84447791904153   -3.85389333028837
H         2.04958778528199   -9.78956889117531   -4.37544392359058
C         1.06760074352773   -6.47376336401251    0.50092616439918
H         1.05856490320054   -7.31148012720558   -0.18082325019185
C         6.89186862490155   -6.99884911979475   -6.40579862041704
H         7.69553657951959   -7.71576457784779   -6.33720037431431
C         6.63206790926816   -6.14803582227073   -5.34340049187239
H         7.22829920105100   -6.20265265141974   -4.44495770917927
C         3.06551148762806    1.68476747853603   -4.85943782016892
H         3.63226033425596    1.95141177228798   -5.73908007697572
C         2.73779062480690   -0.85274721217815   -9.07004859352680
H         1.98724428477518   -0.07845497137224   -9.12181510886068
C         3.26944709977425    2.36227951163445   -3.66912338231836
H         3.99161070981626    3.16285822880692   -3.61979013672353
C         1.12823306075205   -4.34942575753140    2.29340398360655
H         1.15869228810598   -3.52611154693223    2.99089055369651
C         2.55188091479214    2.00609566394697   -2.53719193552762
H         2.71762756954426    2.52453642430657   -1.60520630489773
C         3.77673470920682   -0.88371086928445   -9.98849891737195
H         3.83674205103336   -0.12924754523197  -10.75760458334435
C         4.74023070954396   -1.87765688821769   -9.92196877068637
H         5.54798539687495   -1.89543518938139  -10.63746819169116

