114
CSD_code = SILVIU | q = 0 | S = 0 | Stoichiometry = C55H52MoO2P4 | MND = 7
Mo        6.09596141759037    8.62503643273956    1.28355876193672
H         4.55438012126860    8.98173036390073    1.35604981090164
P         5.43930511565074    6.57601953912426    0.31496316012998
P         6.97552513944961   10.52457280016615    2.25122733689996
P         5.17830367558264    8.44036128687971    3.47524540892730
P         5.75433906280912   10.16672941961220   -0.49135419336100
O         7.85059090708286    7.42911343724510    1.84947487272114
O         7.90528631638059    8.63480313978520    0.05082189390252
C         8.48434334607625    7.86212738985868    0.85549348544845
C         9.88515413950015    7.46185659520164    0.65012977532974
H        10.28981215140334    6.80341608054167    1.40643505248520
C        10.59939139951347    7.87654559841570   -0.38875843259768
H        10.15791116854486    8.52471283003501   -1.12772746968275
H        11.62374071548675    7.58166717161150   -0.53896965345898
C         4.12196642756884    6.56239078918304   -0.93600890811138
C         4.18729975162253    5.88193105671583   -2.14587915674031
H         5.05755338204382    5.28888202708900   -2.39024921255243
C         3.13605009554277    5.96493969240299   -3.04337461361304
H         3.19531367280509    5.43900909288424   -3.98605717507752
C         2.01200178284055    6.71330790864419   -2.73839369959418
H         1.19720581685122    6.77858063027732   -3.44529026713791
C         1.93158582586600    7.37400239454255   -1.52147836245860
H         1.05139567958360    7.95119953909201   -1.27598636624074
C         2.98137755809672    7.29863908407749   -0.62690094976454
H         2.93851677386039    7.80873965813167    0.32630173877730
C         4.87223682751516    5.24423554479876    1.42276412869426
C         5.68133597756530    4.97823303966522    2.52506489730800
H         6.57133502766880    5.57646569712133    2.67123759846303
C         5.35730498505027    3.96748682604347    3.40933193882772
H         5.99968999204836    3.76000724361523    4.25452840767393
C         4.20168432454234    3.22625607444978    3.21390930686549
H         3.94135334317372    2.43764627822947    3.90552397680822
C         3.38041540416278    3.50245564230353    2.13457670229275
H         2.47480021521437    2.93134955710701    1.98637581320344
C         3.71416979170584    4.50079695197625    1.23469791909263
H         3.07233913888479    4.70008355754067    0.38850487392858
C         6.80838192937302    5.72964978902577   -0.55071593648955
C         7.45199197844444    4.58318909901260   -0.09855570060779
H         7.07542834991480    4.04889921198164    0.76229528529088
C         8.57817980861587    4.11387842702313   -0.75389410975943
H         9.07102349291707    3.22175378868572   -0.39328266888289
C         9.07665052395720    4.77924301580396   -1.86021803432348
H         9.96060356784861    4.41182763244630   -2.36137215985330
C         8.43683480457935    5.91874461945248   -2.32156290587888
H         8.81424524864609    6.44479566972126   -3.18703558449837
C         7.31628644695967    6.39086646890957   -1.66817021689161
H         6.81673572196765    7.28305340335245   -2.01876271716351
C         6.30967918991948   10.91133617214741    3.92878118833218
H         7.01322624528680   10.53741401500599    4.68023364458703
H         6.20927347723687   11.99550452262081    4.05228565138786
C         4.97283678156673   10.19791414169384    4.05419815422676
H         4.24919880333606   10.66529583736138    3.37952648279747
H         4.58748537557483   10.23503763002731    5.07764104365551
C         5.97036108428679    7.75056313736401    4.97152069103422
C         7.20227429579995    7.11345297666993    4.89831055216518
H         7.68811405039571    7.00548548931999    3.93963798332606
C         7.80326927307491    6.61512735161494    6.04274281046073
H         8.76307236228442    6.12252480617346    5.97515484982409
C         7.17589805502624    6.74357485476086    7.26922866365483
H         7.64307010317378    6.35403166038500    8.16219405002689
C         5.93996937740941    7.36727786537667    7.34902638643876
H         5.44255623861177    7.45988808646783    8.30409652318548
C         5.33975768683165    7.86727211928231    6.20984941863614
H         4.36520457129860    8.33258967336448    6.27518061839656
C         3.49114168792530    7.78583703599805    3.68224778601606
C         3.29660600270635    6.51225161316998    4.21047264509970
H         4.13911186563764    5.96575654420595    4.60858602896433
C         2.03745080119913    5.94303887205427    4.23381592937342
H         1.90631589672886    4.95322907569027    4.64648924439589
C         0.95043549862654    6.63479816162825    3.72747111949835
H        -0.03289965012585    6.18798348707846    3.74024166725550
C         1.13082707787653    7.90491640675106    3.20544481264401
H         0.28537864398124    8.45281902104425    2.81369952111368
C         2.39011160313865    8.47402644814991    3.18018012477352
H         2.51717341094712    9.46482765424129    2.76806024095091
C         6.64878831094303   12.04077188410449    1.26103792092101
H         5.59338286048167   12.30331046615832    1.41774614252922
H         7.27553121156281   12.88742174154600    1.56097319740061
C         6.86619426605906   11.61781254971749   -0.18476131765202
H         7.89271893890230   11.26486836331323   -0.31768323441360
H         6.65700950144058   12.42492947613735   -0.89522618091121
C         6.17216156237532    9.69553270885771   -2.19513076342097
C         7.45000468670850    9.79383538461988   -2.73514111278979
H         8.25139352447674   10.23218664595740   -2.15958564111754
C         7.70403947811282    9.31130855331885   -4.00772158189762
H         8.69904284225234    9.39300133664841   -4.42296026001149
C         6.69305753182487    8.72294255644213   -4.74886189983104
H         6.89833386788210    8.34475421303193   -5.73983697899487
C         5.41804021895347    8.61612368955380   -4.21428642568312
H         4.62577491338311    8.15328334590851   -4.78450227727646
C         5.15989654633979    9.09607039845323   -2.94536092438092
H         4.16943218485050    9.00875271877305   -2.51724932787769
C         4.21755200535976   11.09385860590622   -0.82525662779396
C         4.16109515876775   11.94082704619016   -1.93102921666667
H         5.00635915754735   12.00393036128833   -2.60396922701869
C         3.02634592391982   12.68712916208382   -2.18394916975866
H         2.99216357521373   13.33815018102316   -3.04584353639784
C         1.93281389926185   12.60173388649730   -1.33638848896674
H         1.04640450304141   13.18574451571126   -1.53681958480180
C         1.98158841486979   11.76438675825105   -0.23572266890535
H         1.13131237039806   11.69293798074508    0.42765896824552
C         3.11915949838154   11.01705219984699    0.01662112908167
H         3.16727731115928   10.35519453092007    0.86861115923608
C         8.77492306391311   10.59536044972353    2.52297300129632
C         9.27596130187703    9.63038851547189    3.39657235699013
H         8.57874340426448    9.01895034350315    3.95546621995045
C        10.63486729633216    9.44761866086850    3.55343136842647
H        11.00352402725680    8.69705535892214    4.23833924697000
C        11.52356452450327   10.22066525029390    2.82348700334776
H        12.58830923753059   10.07464841961297    2.93261778603035
C        11.03999748454752   11.18103861865120    1.95241767752066
H        11.72969828714644   11.78955583838920    1.38418613842007
C         9.67745758921762   11.36757998598390    1.79642747025028
H         9.33174136546727   12.13058114149327    1.11398817670575

