92
CSD_code = SILYAO | q = 0 | S = 0 | Stoichiometry = C44H40AgNO3P2S | MND = 3
Ag       10.69196451724573   13.32888483901100    4.74427587873578
C         9.08504885891185   11.47769170541734    2.70090355518159
C        10.34538366578656   10.91700475396065    2.49300544584719
H        11.19969263177886   11.57209342307772    2.33636576224157
C        10.50637377728540    9.54674919591296    2.49659263333173
H        11.48768993131428    9.12000935905523    2.35033353748560
C         9.41286846802521    8.72396423448738    2.71865868337650
H         9.54036416114625    7.65159387059199    2.74305476107918
C         8.16117008510245    9.27601150465997    2.92527842941358
H         7.31078726398347    8.63484871095350    3.10750267351704
C         7.99213942425228   10.65037426684292    2.91771667024351
H         7.01447877885673   11.07433469547880    3.09685269129259
C         7.23498154044474   13.63370249132139    2.93707971428906
C         6.65456226139629   13.44632184560082    4.19142352059535
H         7.26968002019374   13.11173484014075    5.01582991527390
C         5.30171099374142   13.67117298600704    4.36754447200764
H         4.85370721835871   13.51613197278419    5.33813877318952
C         4.52171565334241   14.09599505673495    3.30303561375858
H         3.46535824803095   14.27415221610130    3.44239476626456
C         5.09859989460464   14.29308813243412    2.05959286411281
H         4.49238303896322   14.62478419714500    1.22888525588583
C         6.45072033668448   14.06380800404458    1.87158019183923
H         6.89203105369680   14.21777578985174    0.89764613906318
C         9.34163663774295   13.78238123182595    1.06006915052384
C         9.32379782150869   12.89145524151448   -0.00594866118566
H         9.11265146402615   11.84664129305658    0.17051317692521
C         9.57370522430280   13.34456948427773   -1.29005057978993
H         9.55792981080280   12.64876236497717   -2.11620046010789
C         9.83794246231694   14.68445449016162   -1.52048293393528
H        10.03032060698463   15.03263517974201   -2.52472933776478
C         9.85708110544588   15.57823389433281   -0.46058061500073
H        10.06389036034399   16.62377031336402   -0.63729027994716
C         9.61575141484818   15.12743894854056    0.82323327939469
H         9.63767855948023   15.81080827200424    1.66283147349068
C        13.87164690205786   13.76387459622782    2.67360886321401
C        12.97572947323844   14.15112711646417    1.68463165419856
H        11.91252752645196   14.08597359824286    1.89387070459534
C        13.43483594448681   14.61437400616938    0.46469040279271
H        12.72821005471715   14.90618010775948   -0.29822348134835
C        14.79748613971567   14.70201346018138    0.23136396209532
H        15.16125291249095   15.06517040760746   -0.71838963935905
C        15.69653899360898   14.32569946585793    1.21767882609230
H        16.75865830216023   14.39692677007960    1.03412928643240
C        15.23939643966230   13.85576807143557    2.43514274112855
H        15.93924206214488   13.55743247991841    3.20279791554009
C        13.66758815396127   11.36488853186265    4.15074974190006
C        13.58741849497509   10.60200023991755    5.31373797468821
H        13.29899182480564   11.07362793181441    6.24113767021591
C        13.85041508344271    9.24651802988632    5.27414372449060
H        13.78063898556543    8.65947529651513    6.17795858587660
C        14.18699595699924    8.63762589250619    4.07557147416488
H        14.38577346029765    7.57612768657222    4.04460764868275
C        14.25644429015636    9.38977149463966    2.91499672504371
H        14.51137638243226    8.91619030282809    1.97720414657664
C        13.99093957340179   10.74785090909282    2.94665080353820
H        14.03195130943971   11.32547717065852    2.03324931913704
C        14.41234362116448   13.83262717816061    5.40512653593956
C        15.39351011573264   13.12104763971216    6.08301408950147
H        15.49000083146298   12.05463240450537    5.93954875376545
C        16.25580495915962   13.78164222827312    6.94166980672449
H        17.01420664162884   13.22335507128100    7.47151809353296
C        16.15750289171053   15.15067374085150    7.11813862617776
H        16.83559540389311   15.65970489399717    7.78728572852800
C        15.18856489253721   15.86745049699991    6.43337394793773
H        15.11522683487496   16.93736381686494    6.56373154278398
C        14.31473925305300   15.20982855353281    5.59099162828064
H        13.54235144413450   15.75133728448235    5.05659297186340
C        11.20514164158240   12.59165456759173    7.57372373591244
C        12.13848455598988   11.84912803985521    8.26679663799723
H        12.00839678724640   10.77680455096004    8.27359266582826
C        13.18439101050616   12.46283614862573    8.94208791230844
C        13.24327544759411   13.85122320243839    8.92662335239205
H        14.04063508313636   14.34976212187257    9.46075034917473
C        12.30642683875752   14.62106274813503    8.25805156965951
C        11.28118142586784   13.98034629845397    7.54455517741191
C        14.22992650173982   11.65312895289056    9.64796957238811
H        13.81358697383433   10.71206465924362    9.99926386100151
H        14.63730125891029   12.19949318251490   10.49593072751939
H        15.05089188998192   11.42732662605126    8.96559766065312
C        12.36965027961831   16.12083381015867    8.30601379592258
H        12.36406691173846   16.54469792884433    7.30273769069691
H        13.27621570154695   16.44207606332372    8.81183468255313
H        11.51561387070329   16.52377047150663    8.85478346497157
N        10.36078591293736   14.72212968755202    6.78138830972525
O        10.75018755912961   11.12058666708766    5.51166457897885
O         9.53078062979340   10.58696630133478    7.56134823954353
O         8.92733656652111   12.54469087580353    6.23509588186196
S         9.98851387887271   11.61249958268126    6.66334629627774
P        13.19389590670437   13.11795691417295    4.24650062530441
P         9.02224338620231   13.29789438251430    2.79766095029494
H         9.48211423478344   14.20079218416768    6.72561811124777
H        10.21885329786735   15.65903834929645    7.13880721326263

