101
CSD_code = SILYAP | q = 0 | S = 0 | Stoichiometry = C37H56LaN5Si2 | MND = 4
C         2.89149704827095    2.38698308578139   -0.26020078848966
H         3.75827633172741    2.48720614078993   -0.89669681474216
C         1.83067384300473    1.63271807731962   -0.71818377318736
H         1.89737822102702    1.17212616218147   -1.69436590657355
C         0.69242346350115    1.45256144393750    0.04912904340571
H        -0.13343007466109    0.86375272590529   -0.31933783071112
C         0.63161971823347    2.05321544291857    1.29886088638534
H        -0.25687757305089    1.94466657258210    1.90559946285812
C         1.68599775707546    2.80313140295910    1.77031089741521
H         1.60091659518693    3.29691145684320    2.74629273901324
C         2.86218645507056    3.00055687110255    1.01028457924101
C         4.84825314873588    4.30141599050110    0.61836186768739
H         5.13851634336666    5.29590921517081    0.97866595225314
H         4.42667447366696    4.41908506986478   -0.38923348441243
C         6.13865840749228    3.44915929470826    0.51768859823993
H         5.93799549125262    2.51078677195518   -0.00020611299597
H         6.90245832312995    3.99768508076380   -0.04057559914773
C         7.17597762401515    4.03943850948280    2.71253273640374
C         7.23046676707362    3.44626823700351    3.95502937543916
H         7.72140303002415    3.85494609425202    4.81999767032017
C         6.66020176156782    2.14852217155017    3.83281964391972
H         6.63347660450060    1.37750665088100    4.58220091665923
C         6.28285121885350    1.99471743907272    2.51614166666679
C         7.66180151542185    5.39435643231348    2.32611863350762
H         6.91697829271682    6.14985418563032    2.57951858861413
H         7.88125721667149    5.45407048826397    1.26306467313148
H         8.57166311049656    5.62380945518327    2.87726481072869
C         5.74137826254869    0.78058432184604    1.84251647360913
H         4.77528770603927    0.97292932841046    1.37599208926074
H         5.62220383407853   -0.00327062757381    2.58591955291043
H         6.43148219741824    0.42474388532641    1.07537656282018
C         1.43545252832322    5.51143854856378    5.86058038718428
H         1.39887042329032    6.41176923541908    5.26996459645413
C         0.74007493238376    5.24448573445237    7.04392255526300
H         0.05544219875536    5.90437245339761    7.54115798597334
C         1.10958891905006    3.97112709589831    7.43437363106732
H         0.77876836054005    3.42788880228860    8.29934365267045
C         2.02675174601635    3.50990189205139    6.47046340087136
C         2.70155402825556    2.27899306049924    6.42435965047427
H         2.45757036259499    1.55731228402307    7.20959485017381
C         4.14246912410020    0.67160070313363    5.58705080286671
C         5.08513394573329    0.36762883289144    6.58034318211096
C         5.64933325632540   -0.90179229572649    6.59618104893281
H         6.37927430489795   -1.14966046271906    7.35167295809405
C         5.28050361517675   -1.85874189043619    5.67312536772009
H         5.72515534470257   -2.84231272187527    5.70508643262142
C         4.32357692246085   -1.56229043512014    4.71942123881925
H         4.02186278324613   -2.32816618863560    4.02346087987879
C         3.74309183798519   -0.30475320003100    4.65837625593232
C         5.48213175929098    1.36822063742806    7.64406536721905
H         5.00367321318598    2.32718384111558    7.42671583019053
C         6.99446588034127    1.60063387743830    7.68116543004788
H         7.52741490419331    0.69245978499135    7.95146040902281
H         7.22957424779104    2.36344009549952    8.42030670374132
H         7.35826325386492    1.93811189723410    6.71415375345187
C         4.98998927271748    0.89606944169586    9.01597493167199
H         5.46413744694600   -0.04194962597379    9.29530169872580
H         3.91310047127933    0.74238103131720    9.00850127776548
H         5.22535304255004    1.64005454537311    9.77391083073529
C         2.65176069435164    0.01818465989802    3.66258504954318
H         2.82747761664440    1.04102850383267    3.29548593876724
C         1.28557792389982   -0.01321671070661    4.35968807375105
H         1.12202064079026   -0.98702874742721    4.81812715955047
H         0.49914325094018    0.16342080221523    3.63027217587434
H         1.21381600386587    0.74957657694177    5.13049261118603
C         2.60108960413797   -0.91943078861100    2.45630379303860
H         2.20031191917688   -1.89098106182088    2.73745657439345
H         3.58248992411162   -1.06103570257958    2.01329756172046
H         1.94635793213866   -0.49055610140174    1.70089306733446
C         5.49232934437078    5.04199400646244    6.70784134907465
H         4.58354608088779    4.88612137270080    7.28512033319950
H         6.31923267708267    5.06874520510531    7.41172444951497
H         5.64919178289676    4.17495010798673    6.05734032205411
C         4.43061138697675    7.84341295852249    6.93233179626460
H         4.48198984329058    8.88011779769721    6.62263037771131
H         4.84530223476521    7.78048777239860    7.93425124382687
H         3.38313351107987    7.56617196095876    6.99389261907205
C         7.14020022244063    7.41762271685890    5.55589709027734
H         7.83235804113640    6.70451116002501    5.12171107268040
H         7.53731515413369    7.72007225283438    6.51920756536203
H         7.12758011537713    8.29348182229317    4.91676763007676
C         3.24865824846657    9.09437515016555    4.01028026000187
H         2.56965001637988    8.84675351493639    4.81789774378910
H         2.70696891903123    9.71284188903620    3.30122335965383
H         4.04732436284412    9.69821939369393    4.42619958917893
C         5.19207334143486    8.22665889559889    1.86934483894229
H         6.10953794774910    8.55486609654661    2.34709343308045
H         4.76399041482418    9.08621477069028    1.36400628815213
H         5.45654895249217    7.50443704006675    1.10375805500981
C         2.48286967358631    6.74110523428633    2.21821262371775
H         1.81353267084936    6.20462931715970    2.89104075027374
H         2.80710407668040    6.05163085313488    1.44406744310102
H         1.89290665417173    7.51107853258559    1.72915364731632
La        3.98343520064335    4.05554667520603    3.92191112315173
N         3.86703947209069    3.75782102630629    1.54457310848711
N         6.61041693989145    3.14348242760162    1.84171646219908
N         2.20697255924677    4.48092248157152    5.49989284881323
N         3.57034321218057    1.96445738139773    5.50349727895338
N         4.65870679607374    6.33988368746699    4.20015705320592
Si        5.37194386088031    6.69476020417618    5.72450838672385
Si        3.95591553551714    7.53011051308947    3.16842563205957

