67
CSD_code = SILYIW | q = 0 | S = 0 | Stoichiometry = C24H34N4NiO4 | MND = 6
Ni        0.00006944232204    7.64847683490386    8.62356448805102
O         0.89900874603066    7.18457465460521    7.05139007373867
O         2.60487683417005    5.83228327782963    5.60985136120745
N         0.05040513818509    9.53239061852909    8.08310803161518
N        -2.19120623640716    7.83112176134967    7.44234511410363
C         1.84749302568898    9.29569552824546    6.47706195677489
C         1.77001972712538    7.87577899550357    6.43205915495093
C         2.72986972515082    7.20140731626991    5.59589121276183
C         3.67286224417109    7.90265634656110    4.89166710883345
H         4.39777521172810    7.39084673716333    4.27706265521820
C         3.72086206066965    9.30313271783323    4.95747666225145
H         4.47393562318625    9.82980444479001    4.39167650071819
C         2.82088966843101    9.98242183639038    5.72877548165355
H         2.85222594182189   11.06173194019937    5.78375532208901
C         0.87943873814471   10.01897646249004    7.23071002223016
H         0.84032190906572   11.09422101809754    7.01803090007048
C        -0.98960626606771   10.41823299304349    8.55964613377062
H        -0.63734722177421   11.46015661211945    8.53802414443984
H        -1.25149306999713   10.14272655729195    9.58255015022129
C        -2.23733370311315   10.30605432203797    7.66956963765771
H        -2.91785831478471   11.12052534992995    7.92678536931651
H        -1.94063123614104   10.42936011533064    6.62296960549603
C        -2.98873273943672    8.98734494738213    7.83511350667295
H        -3.26667869691425    8.86057350047343    8.88473028893803
H        -3.92187066076491    9.03981185202169    7.24183875416094
C        -2.98546451773818    6.61229241102431    7.44591433239483
H        -3.32244822740113    6.40456810620112    8.46177399648844
H        -2.36736242727773    5.78339015302752    7.10727443235016
H        -3.87284780112022    6.68769090597372    6.79657751891037
C         3.46968361629094    5.08139432779841    4.80179336376658
H         3.36489128813656    5.34395263314488    3.74324739184243
H         3.18030325073002    4.04082586913754    4.94382486703507
H         4.51654769702285    5.20839968905484    5.10120054550343
H        -1.84607214886130    7.98256602445910    6.49327629125018
O        -0.89931786163631    8.11202638829663   10.19560939318407
O        -2.60614543967712    9.46364727660807   11.63669515197674
N        -0.04961181201121    5.76457216653658    9.16406030590313
N         2.19121276353226    7.46716037304213    9.80509679814185
C        -1.84717987656957    6.00054106775418   10.76964790413711
C        -1.77024138951896    7.42048614555530   10.81469577819537
C        -2.73057761596463    8.09447105664812   11.65061907634358
C        -3.67348564855039    7.39284854227713   12.35458507030768
H        -4.39875595682513    7.90437236235520   12.96900653568139
C        -3.72093945538159    5.99235561652574   12.28874351823627
H        -4.47396190245732    5.46538877762065   12.85433679634929
C        -2.82050930344494    5.31342508446178   11.51766250594566
H        -2.85142190652210    4.23410457482506   11.46264299810744
C        -0.87864639657638    5.27764395877759   10.01625648796099
H        -0.83912233861826    4.20242129029802   10.22897173916986
C         0.99097886480511    4.87921525733198    8.68789476032360
H         0.63927282012601    3.83710735099776    8.70963128612049
H         1.25290690225871    5.15467485378279    7.66499142546415
C         2.23849471875413    4.99220905148097    9.57816769869927
H         2.91946591838865    4.17803271081776    9.32120675034868
H         1.94168465671501    4.86893177888040   10.62474037096008
C         2.98929942899359    6.31125221622857    9.41254665542400
H         3.26732036070251    6.43804285321788    8.36294917996370
H         3.92238949445503    6.25927809999267   10.00593996254435
C         2.98494632969372    8.68633190127461    9.80154569787419
H         3.32196308836428    8.89413767892511    8.78571376320658
H         2.36645674024110    9.51499330261027   10.14006500504306
H         3.87228034204132    8.61134781479768   10.45099481464681
C        -3.47153035576793   10.21417714650025   12.44447838621252
H        -3.36696744655069    9.95166356335243   13.50305984164268
H        -3.18253828825680   11.25486659431713   12.30254137963705
H        -4.51825215702783   10.08673664217806   12.14473783335126
H         1.84600610201859    7.31564964151461   10.75412875241545

