61
CSD_code = SILZOC | q = 0 | S = 0 | Stoichiometry = C22H28CrO8P2 | MND = 6
Cr        3.50187400880241    1.76161753991964    0.25485077918104
P         3.53178143664463    1.01922696033975    2.38604469533141
P         2.83137864874187    2.53659267253781   -1.75607630093713
O         1.72884778793413    3.93180155694254    1.29747684897640
O         1.36768663039632   -0.30499366982482   -0.08627264234324
O         2.15709017270238    0.58278266401620    3.16077591762397
O         4.22961710660171    2.02545024408286    3.42168783605552
O         4.31805343058835   -0.33734782466056    2.74208153188771
O         3.07144284480215    1.52593780137249   -2.97795686850774
O         1.29881215216461    3.05726398296022   -2.00239144639658
O         3.51781786365535    3.86290234306782   -2.35133947949224
C         2.37830173417400    3.04843934925315    0.89609836993343
C         2.16151196623918    0.53933706764292    0.05563745904941
C         0.96550255986660    1.33897267422221    3.09284786426712
C         4.49253994520043    1.63740823490539    4.76943294469226
C         4.08568320677738   -1.47888894063654    1.93913285451133
C         2.87405900280313    1.93731592191349   -4.32994268227753
C         0.16824040274368    2.34891731629099   -1.53717691201673
C         3.64843947499642    4.98956112197217   -1.50549052929731
C         5.48636310952632    1.52065171353432    0.52422190278634
C         5.27836066128916    1.89253854594993   -0.69197632381443
C         6.54699846664477    1.13650930117614    1.41283372324467
C         7.01597363448027    2.02339231239377    2.38430182217216
C         8.02512526373463    1.64321742894395    3.24696131412821
C         8.58539091389781    0.37891294233499    3.15762746709610
C         8.13842200474948   -0.50105959096534    2.18527915398168
C         7.13231789114389   -0.12845674678446    1.31637493906120
C         5.98139934718390    2.21675747063861   -1.90140412876432
C         6.02634640911526    1.30610940264990   -2.95948097004117
C         6.68839998181185    1.62646697102759   -4.12809898747570
C         7.31767238754768    2.85376091200626   -4.26404177166950
C         7.29379563364694    3.75574422902117   -3.21273589822237
C         6.63685559688103    3.44269784051388   -2.03931361142230
H         1.12089354468997    2.35824872405831    3.45108233911398
H         0.58901714713216    1.37218155887028    2.06775819727483
H         0.24184592389262    0.83161777459501    3.73168797949295
H         3.71533454887604    0.96704673053383    5.13889314787853
H         5.45979329345196    1.13646093974291    4.82574081921265
H         4.51143672078451    2.55065139143368    5.36395515504625
H         3.10228121166753   -1.90319709175934    2.14976485004920
H         4.14080689552504   -1.22187007640696    0.87405325815391
H         4.86261117197057   -2.20161813526603    2.18841361207797
H         3.78489402295616    2.40126591627414   -4.71027633446035
H         2.64691942127831    1.03908322904108   -4.90371190037456
H         2.04840280899888    2.64640892888904   -4.40318097801795
H        -0.70585624567900    2.89449802658150   -1.89420055870594
H         0.14991934601874    1.32963780360749   -1.92729360981249
H         0.15812758074336    2.31553111928041   -0.44515627376776
H         4.07275669602778    4.69973835159889   -0.53611028182708
H         4.31705654966022    5.68602973931487   -2.01122808119890
H         2.67802190972877    5.46081255251092   -1.33964781118320
H         6.57556833618797    3.00820302148236    2.45638712289814
H         8.37742080398201    2.33714022916461    3.99738353193415
H         9.36919900149324    0.08251241933172    3.83921970535879
H         8.57971541296350   -1.48449511791268    2.10330330111571
H         6.78945671483681   -0.81389454759523    0.55270654092161
H         5.53114304971519    0.35067697360291   -2.85419838421151
H         6.71293530271604    0.91500824291906   -4.94171806434751
H         7.82774970425172    3.10398926002993   -5.18273957635749
H         7.79322082710469    4.70965101397188   -3.30867739215246
H         6.62572662152767    4.14534127318547   -1.21667918536715

