54
CSD_code = SIMCAU | q = 0 | S = 0 | Stoichiometry = C20H25CoN2O6 | MND = 6
Co        0.14951766191938    7.68503830393567    8.47687669805061
N         0.62604195379709    7.24819970137936    6.65136283703101
N        -0.43051789772207    8.62152859992322   10.08712488440979
O         0.89969642646153    8.03296714341204    4.58086285163191
O        -1.01892094312681   10.59038598832476   10.96517705465404
O         1.90932547264743    8.11345724974291    8.94650346746901
O         2.75633470279540    9.20526267633529    7.19106090676078
O        -1.58218556098278    6.86294549271666    8.27025922205252
O        -0.01324936402831    5.70270097356861    9.21119400779009
C        -0.19899650441236    9.31448298662854    7.72579588531835
C        -0.01106317424999    9.47890046340877    6.36008793789192
C        -0.27993535804754   10.71322903858951    5.78087540842427
H        -0.12641835919034   10.86918386218241    4.72381594475114
C        -0.73836425712220   11.74744989365222    6.59055680276016
H        -0.94521417151041   12.70826198038047    6.14245436467618
C        -0.92808305257505   11.58992012522456    7.95646563478865
H        -1.27653755388938   12.41214256351297    8.56389466686829
C        -0.65319402079561   10.35081996999958    8.53184628735878
C         0.51522595875013    8.24316249179775    5.82878803310067
C         1.43405191639986    6.71106918838982    4.52600544469272
H         2.49037093843121    6.78018298666260    4.25310899680811
H         0.89339142953180    6.15474907565766    3.75539958198780
C         1.22971440791252    6.11931599920107    5.94801113816027
C         0.27587209838248    4.92338020785967    5.92827944041279
H         0.17849770332751    4.51841700572103    6.93117316317470
H         0.66864355983955    4.14838935234029    5.27361912471988
H        -0.70740517627061    5.22751693422637    5.57429284160548
C         2.54961789361794    5.73965103937902    6.61501385288144
H         3.23522093832460    6.58295122239345    6.58759013843358
H         2.99803251422892    4.88871458890781    6.10716961223912
H         2.36078678422925    5.48444212896728    7.65537828434288
C        -0.71645978653377    9.86895773250237    9.88944274459921
C        -0.90684420115679    9.72250638790317   12.09305662806232
H        -1.87742492883732    9.68680824816630   12.59556368420315
H        -0.16192459357653   10.13954052650741   12.77581325038662
C        -0.48283198587022    8.34201932730792   11.51810398778161
C         0.89924974751568    7.90472231285022   11.99854013179898
H         1.20485905182793    7.02962561735272   11.43057217637904
H         0.87306836209662    7.66377004362628   13.05875802123178
H         1.62746594003157    8.69206894932909   11.82039770316062
C        -1.52155191124126    7.26265120978185   11.82358149504363
H        -2.47780637589253    7.51594267020601   11.37006988859607
H        -1.64919399773991    7.16559477169937   12.89956440846500
H        -1.18520776448486    6.31142859918371   11.42248408807506
C         2.84002700054850    8.70866835296320    8.30302297937805
C         4.15892543133478    8.76416952526340    9.08282340085648
H         4.97534236772887    8.46688475964980    8.43071356074657
H         4.10984265669943    8.11367207725741    9.95009884963906
H         4.32992546487647    9.79027467742753    9.39933046914106
C        -1.19516465436851    5.79211141155379    8.81389070912882
C        -2.16113781517816    4.64031111094792    8.96937241230093
H        -1.70733044761467    3.85336267016071    9.56484851646348
H        -2.41687894251824    4.25342191333660    7.98526581521745
H        -3.07500558432149    4.99236787060446    9.44094056409736

