68
CSD_code = SIMFUR | q = 1 | S = 0 | Stoichiometry = C28H33BIrN4O(1+) | MND = 8
Ir        5.78941163100365    2.94162857945477    9.12844359557550
C         3.72781272279546    3.76947679070512   13.02527594510922
C         2.46398689482326    2.85046541153655   15.35631064205769
H         1.97868268448148    2.49818329641854   16.25369987626023
C         4.26097207438464    2.72026256861154   13.77438412504126
H         5.19609887660853    2.26391508492969   13.47292607781731
C         1.91968700986648    3.89610663745973   14.63139110748198
H         1.00672275430121    4.36659738140178   14.96435282697695
C         3.64183550676017    2.26518553664561   14.92539694058222
H         4.08300360055000    1.45605026825066   15.48941778888869
C         4.04194300306713    5.73188918137335   11.13869595352657
C         4.86811572741695    6.84277480529248   11.28950804158644
H         5.81780483495093    6.73305664457619   11.79441293900731
B         4.44878620406722    4.25949590233153   11.65907394576718
N         6.72670169656207    3.62944354201505   10.80449743894789
C         3.27153255656118    3.86255349722415    7.07916157002676
H         2.92920558531640    4.67175349458378    7.72032947588916
H         2.66994496957972    2.97590640263360    7.26736387900522
H         3.10202025172439    4.16584233124198    6.04478430608859
C         4.72337817045302    3.59530220142145    7.27243659994985
N         5.98042673075297    4.12744305089322   11.79433934808738
C         5.70004412606075    4.58326658207593    7.67587025088041
C         5.39943511532921    2.37939648347857    7.00990351490139
C         6.81703040993778    2.60932203835161    7.20906904772228
C         6.99424899109349    3.98660117353843    7.56651213188976
C         2.54463603815471    4.34442635670766   13.48046123818891
H         2.11226405659849    5.16859389620900   12.93279541867469
O         4.12082254589618    3.22281281935919   10.55691043869136
H         3.30895589141638    3.52600228022719   10.14142443079026
C         8.29262923023283    4.70440973805414    7.68446012874209
H         8.48878261177189    5.23527648309748    6.75182080895839
H         9.11460928342703    4.01642563484124    7.85973665191496
H         8.26812332030922    5.43917949299543    8.48554255498051
C         5.44201132808031    6.03936418509067    7.85970537538769
H         6.17556652677987    6.48652044435761    8.52538405963848
H         4.45424157968530    6.22693519122331    8.27134160198911
H         5.50881173392397    6.54311037005307    6.89437634904433
C         7.90828310511741    1.67518397729740    6.80751225060672
H         7.55717873494049    0.64780175945636    6.76985843836431
H         8.75871675239399    1.73740359572917    7.48296024185517
H         8.25736564800711    1.94623456195644    5.80989251335179
C         4.80629316835270    1.14066053697392    6.42458317401473
H         4.95511843190786    1.14262117415676    5.34417617184684
H         3.73860981372796    1.08466505303834    6.61753197111752
H         5.27664703705886    0.24626903560937    6.82688753089245
C         8.00583669629968    3.68668684352260   11.17936925653815
H         8.79180725336410    3.32840835313915   10.54500416639563
C         6.77045458139972    4.51065625263834   12.79606716145544
H         6.36380064048770    4.93488696173969   13.69127056067777
C         8.08467768131114    4.24541676946240   12.44609476870275
H         8.96582243904603    4.43120929707000   13.02293690486085
N         5.89840115856287    1.06779476569779   10.12582369307881
N         5.11341818111690    0.76523385757565   11.16388361343287
H         4.43146047629010    1.44526484654421   11.49401767575777
C         6.69570285538852    0.02153098872490    9.93834219078296
H         7.43423948919471    0.01384287316289    9.16292764682018
C         6.41166043370117   -0.97012167517126   10.87526249595650
H         6.88556097196186   -1.92351209680673   10.97380449747343
C         5.39093207041779   -0.45138443586736   11.64464040322533
H         4.86364441958015   -0.86722968878246   12.47864601410642
C         2.82081836000390    5.93485441126693   10.49262147704046
H         2.12516106994297    5.10948436971492   10.37781511013390
C         2.44570202475134    7.17802833831569   10.01234077494177
H         1.49053616162948    7.30108321219906    9.52202623768939
C         4.50312616380143    8.09063507795030   10.81440099262467
H         5.16514128592255    8.93293180518266   10.95071733748306
C         3.29088691605278    8.26305584033402   10.16889032893849
H         3.00200970355346    9.23482755951441    9.79897797376629

