95
CSD_code = SIMFAV | q = 0 | S = 0 | Stoichiometry = C41H49N4Sc | MND = 9
Sc        8.86372789329893   16.51204799462355    3.47472343348838
N         8.92101227809053   17.00998500644069    1.38729348990462
N         6.88267089958463   15.80417923450805    3.04416877675820
N         8.03179684713453   17.06469578690151    5.37693518198756
N        10.05827545237698   18.28765349981417    3.71699528957986
C         9.94062597416554   17.67418763265022    0.77386277555002
C         9.92080969676223   17.40584195084715   -0.64940403611799
C         8.85930241094870   16.57874996650759   -0.87430637475257
C         8.23773985331640   16.34562102653004    0.41288039011229
C         7.09461180698031   15.58054193765648    0.62018775379395
C         6.46284624691570   15.33557315902249    1.83518767260740
C         5.25269994781229   14.55716332272396    1.99908082889359
C         4.95587293498056   14.57566376422024    3.33067398582874
C         5.98637264899165   15.36551419641293    3.97223050853828
C         6.04202646229667   15.64850659714554    5.33328027464290
C         6.99313579244827   16.42595998540510    5.98589672438457
C         7.00774120210386   16.70124787879389    7.40779365207386
C         8.06983971153941   17.52738626414157    7.63295513567809
C         8.69677808164976   17.75323144329811    6.34680261991282
C         9.78609419548253   18.58993400772428    6.12648602736317
C        10.39694074460969   18.86032008532647    4.90608532698623
C        11.47496725201439   19.80749373904516    4.71103019191258
C        11.77201542225887   19.78920628968024    3.37949752302399
C        10.87336299716073   18.83111198175552    2.76970345557198
C        10.83763948706644   18.52391509889580    1.41328727088129
C        10.92529160293810   17.91555802749592   -1.62814778683558
C        12.21699094710188   17.09646429495080   -1.56279501084871
C         8.41790178648926   15.96110940270173   -2.15913615328353
C         8.90415437925729   14.51343350890093   -2.26687494008502
C         4.53430332984555   13.85204041727536    0.89727097129652
C         5.22023545339551   12.52764587262847    0.55223097320013
C         3.83426324828510   13.89461764782659    4.04152991307394
C         4.30353891416113   12.58567106999317    4.68193725205426
C         6.05524851565613   16.12049708353512    8.39905554935896
C         6.43655744879040   14.67907644846648    8.74639345058322
C         8.56352426566033   18.07358219263810    8.93093286344821
C         9.75410527971007   17.26251243768302    9.44897334299536
C        12.07374744431065   20.65425055763795    5.78418032582820
C        11.19707951898202   21.87386271946657    6.07979306991679
C        12.77719767881467   20.60936755401107    2.64176022787883
C        12.12015760146104   21.81609363980227    1.96691134451597
C        11.06268199466710   15.33292835752568    3.29565314817440
C        10.15516948382365   14.51206041879178    2.59722592571846
C         9.23714067806743   13.98782113562839    3.52688992528878
C         9.57564384436118   14.48267068572905    4.80102127378219
C        10.70428511994294   15.31496126113678    4.65969302123969
H         6.64048956007209   15.14316890631680   -0.25716994545274
H         5.25420769447425   15.23379282773092    5.94534775262362
H        10.18518152020963   19.10148334037727    6.99046509580954
H        11.56932422814085   19.01401759687547    0.78726274516886
H        11.14951569895234   18.96430863114295   -1.41840641921537
H        10.51618436820325   17.85966776684330   -2.63889205205973
H        12.95304598338242   17.48834872752400   -2.26161235575083
H        12.63608213716004   17.12488921560884   -0.55963526609262
H        12.01777098723568   16.05800050942016   -1.81661935195760
H         8.81429989893661   16.53506310109947   -2.99904981112435
H         7.32749462503311   15.98390328826612   -2.22646105540953
H         8.56144411002708   14.06403297875180   -3.19650283583305
H         9.99090887575286   14.47825729957440   -2.24583729008332
H         8.53004681891818   13.92220871798013   -1.43418221520745
H         4.50372773703438   14.48765066466753    0.00903815862423
H         3.50378766105428   13.65323821421534    1.19847187452729
H         4.70403259781305   12.03329551176561   -0.26798517397066
H         6.25471216923753   12.69748991677814    0.26281874802565
H         5.21461817869156   11.86439177990383    1.41398613450765
H         3.02878838025466   13.67940448682462    3.33647545827597
H         3.43146208973653   14.55337985532662    4.81463538085188
H         3.48612648842503   12.10963047908966    5.21932638782416
H         4.66119106802387   11.89924850628438    3.91811159130161
H         5.11842786647388   12.77156577581589    5.37771509355792
H         5.04050206466982   16.14008905501522    7.99415763813618
H         6.06046808414920   16.72145629181266    9.31056294395210
H         5.72713205638127   14.25682688014772    9.45494808164967
H         6.44669312356436   14.06073676311638    7.85171971129949
H         7.42880790177673   14.64845007853750    9.19043915406081
H         7.76156258426201   18.04518881134565    9.67127184390330
H         8.86231199756073   19.11718302775767    8.80524916476042
H        10.12017292108372   17.67820973664016   10.38539483952699
H         9.46048875466217   16.22959362718680    9.62038447555542
H        10.56390546322675   17.26781966541107    8.72307700193595
H        13.06437616067015   20.99307329081913    5.47423527555890
H        12.19475257478693   20.06542873005224    6.69663133647002
H        11.63291587547803   22.47185780318734    6.87738610868653
H        11.10469196509278   22.49560422987219    5.19245652954467
H        10.19907052018228   21.56281053462185    6.38006855411156
H        13.27200706311422   19.99605702891125    1.88479411910714
H        13.54301168179662   20.96164489735300    3.33578326897101
H        12.85959736041785   22.39319547635912    1.41565242034753
H        11.34341920262461   21.49225123446933    1.27793824111890
H        11.66291355900301   22.46236324316164    2.71238446414170
H        11.95993194215718   15.77700016768429    2.88381896254665
H        10.23512588596200   14.22462033702129    1.55699865891721
H         8.49080904251021   13.23200043278441    3.32061970232813
H         9.13692453658394   14.16704423345041    5.73867571225979
H        11.28101215932706   15.74169974120280    5.47042457626461

