70
CSD_code = SIMGOM | q = 0 | S = 0 | Stoichiometry = C31H34BN2ORh | MND = 8
Rh        4.18348014916011    8.15520561412591   10.74305898011999
N         2.60113742569409    8.21482679948391   11.99742426951734
N         1.61123682165891    7.36723415668361   11.73323490689158
O         3.13772784448866    6.33725112041783   10.14192431858659
C         1.02927125742056    5.03540908743627   10.83836434577208
C         2.25273828651093    8.93865474075894   13.05865539884538
H         2.89614280886950    9.69641646929152   13.46407044706552
C         5.14954977408619    7.01937428592146   12.10703423024215
C         5.52768790571371    8.58754443114168    9.08139203645257
C         5.03441161394274   10.10996827519159   10.72585441019951
C         1.64605227872606    4.24974491890524   11.81213789034966
H         2.54264815612930    4.61259658110366   12.30374703277826
C         0.62455659965478    7.53799966904732   12.61255779082495
H        -0.26710640750858    6.94659858705533   12.56433413335191
C         4.00955405683679   10.21906423468877    9.68922693874048
C         1.13162374151292    3.02134032156919   12.18619661733891
H         1.63066036709441    2.43483462768928   12.94544428395346
C         0.99256036792890    8.54212056431065   13.49060400884367
H         0.43338852886487    8.92942512057439   14.31736493158913
C         4.30529889953666    9.28827460656330    8.69821082216372
C         6.04225032369187    9.20087136072909   10.25266911680715
C        -0.65802990753720    3.31118950991389   10.62722478803515
H        -1.56396715073652    2.94882146222643   10.16123419785930
C         1.04393628483260    6.68056987300366    7.94290337307773
H         1.51742713455766    5.71514778700130    7.82840687535854
C         3.60858031694478    9.07512436337821    7.39549961141989
H         2.64847633427807    9.58274943389925    7.37121303096706
H         3.43241992138938    8.01588778423067    7.21838948876943
H         4.22863524739861    9.45816434646398    6.58269681491324
C        -0.02385424098642    2.54569440956096   11.59041657884354
H        -0.42920759348779    1.58600214662266   11.87844509240416
B         1.66783959318546    6.46939816071272   10.45433632697790
C        -0.13549992358459    4.53952752987473   10.26078983762029
H        -0.63959270782970    5.13127551338395    9.50971146289336
C         7.40492790755756    9.01804906740954   10.84479097656587
H         8.08065092736023    9.76470877417693   10.42341402410588
H         7.80398934886572    8.03115715726318   10.62466877245960
H         7.38668022112235    9.14384762097229   11.92463307200116
C         6.26203651505764    7.65516844760047    8.16716862467050
H         7.03605497828718    7.10939489064026    8.70172449083498
H         6.73567731469177    8.22477213214837    7.36519303602549
H         5.57806886741970    6.94019407260277    7.71388091466779
C         5.22942712603347   11.10607655272737   11.82875971196267
H         5.81586802663927   11.94915726052641   11.45828156488220
H         5.76495457820400   10.66350027863707   12.66609841728019
H         4.27620782278474   11.49006487530286   12.18451784234881
C         5.26105521231924    7.34681260632379   13.45361187215770
H         4.77351347687256    8.22824975150987   13.84674012442101
C         5.99337932796036    6.55116236868579   14.32129484785573
H         6.06378334173796    6.82374462631729   15.36504932832399
C         5.80716193036655    5.87791339007573   11.65274664495167
H         5.76277647678342    5.59763077143649   10.60547513827198
C         6.63241560289933    5.41492408713617   13.85877656865336
H         7.20193794802403    4.79537971888986   14.53601645264144
C         2.90360886375373   11.22592768238097    9.69311396760821
H         2.10308075409775   10.92557944725933    9.02203325895034
H         3.28548386101895   12.19572728426280    9.36817449164701
H         2.48597741816158   11.34510357385997   10.69124170263070
C        -0.16321042996777    9.14014069042947    8.22063965101704
H        -0.63708113993353   10.10643474226081    8.33710838622289
C         0.37336614750659    8.49596129726730    9.32326615293515
H         0.30082026533498    8.97618970153045   10.29035301672274
C         0.98769049748260    7.25163023863839    9.21415458243620
C        -0.09798547290411    8.55058939111483    6.97045621586140
H        -0.51788565901558    9.05043336876907    6.10847011869277
C         0.50926090881537    7.31339183254076    6.83537468018108
H         0.56460945014475    6.84366914507646    5.86254166807500
C         6.53908909272615    5.08161769954420   12.51953398710200
H         7.03876945580374    4.19946145674650   12.14387643739876
H         3.46930492753077    5.54482610498374   10.57464486784906

