86
CSD_code = SIMHAZ | q = 1 | S = 0 | Stoichiometry = C44H36Cl2NP2Ru(1+) | MND = 5
Ru        8.99292304577102   11.45726058799090    9.10424148592008
P         9.77741841554617   10.14171389461938    7.35884871130545
Cl        7.37961558340004    9.91051608950718    9.45750389419592
Cl        9.55531129243622   13.32507963896570    7.97053308849904
C        10.36840303501737    8.50181551144603    7.87305172869751
C        11.16593124751638   10.79078163713899    6.38302696332804
C        11.72254425188186    8.26222285981817    8.09190338040936
H        12.44996025985277    9.03078500268454    7.86611462244555
C         8.45799701053597    9.82727463180789    6.16250144315688
C        12.14679682471480   11.52649728388538    7.04441861734617
H        12.03582917088718   11.73523416338833    8.10271542876302
C        12.13800464627025    7.03600136815870    8.58014620166221
H        13.19016440688424    6.85123988591767    8.74060113480232
C         8.42724945301655    8.71798770695629    5.32163691352886
H         9.21024376346159    7.97409225866364    5.38046785655109
C        13.23657292192847   12.01036250595959    6.34555587074596
H        13.99266476972479   12.58483472252331    6.85967243165866
C         7.44188222732723   10.77755624952706    6.09689185653818
H         7.47779375035598   11.64430162020898    6.75896612324049
C        11.21163328267194    6.04231869915485    8.84853832432354
H        11.54082950861616    5.08364160250534    9.22005088948889
C         9.43825238483456    7.50447829270817    8.15784450674940
H         8.38572850406432    7.69647621697568    8.00473752127265
C        13.35043736285997   11.77159100946592    4.98506477659161
H        14.19738107359719   12.15747423520478    4.43832694550069
P        12.00615561835081   10.43570403050078   12.27786046544250
N         8.22212057272379   12.60034912250525   10.57656185202575
C        10.43909995330791   10.92760724581587   10.22122848020445
H        11.20242080886921   10.22489155406010    9.85546386121310
C         8.66706663327252   12.83194333114264   11.83009477693482
C        10.60432215388663   11.31603354635209   11.55183435713679
C         9.83920427072841   12.17801149951459   12.30584933266539
H        10.12373248528047   12.37635674758345   13.33089320815337
C         6.40267698063153   10.62425780799255    5.19889157490329
H         5.61393036976888   11.35990009672975    5.14931504857447
C        11.27986869690444   10.55669746439961    5.01759418886601
H        10.51306710822802   10.00222601563529    4.49647832643084
C        13.39115574500432   10.69620966085194   11.15003350757552
C        12.41076736662973   11.00260240969628   13.94079130174176
C         7.10144641501650   13.19170535133472   10.16677657803309
H         6.77756319556723   12.96455922746885    9.15081523723420
C        14.68165571412129   12.25634311909247    9.86297009849881
H        14.89860259065314   13.27078903866365    9.56529251955679
C         7.96012937863976   13.70344800659904   12.68382823255344
H         8.33888246530161   13.87560317601782   13.67922211353106
C        13.66435105195897   12.00854453662024   10.76472531401518
H        13.06969013283785   12.82024595260669   11.16373942114228
C        14.12181675197149    9.63742434064666   10.62333447975984
H        13.89109936306660    8.62228189817560   10.91371046734774
C         6.36391510965908   14.05019169282991   10.95312934421599
H         5.46508588722997   14.50263027680039   10.56821279554962
C        12.37120847416444   11.04925334371531    4.32373502014337
H        12.45428565749934   10.87226134418068    3.26217008465392
C        11.58738238451512    8.68385748603276   12.37413262725215
C         6.81140963730469   14.31633184726289   12.24699212779752
H         6.26280491392699   14.98692386146862   12.88935977145296
C        13.55447020272732   11.74816278993697   14.20646763369025
H        14.24522525965011   11.98613056798731   13.40996516798043
C        11.51919541873112   10.67919450570864   14.96380140079141
H        10.64003654050672   10.08864000795796   14.74034186310888
C        15.41509937462579   11.20172557563431    9.33907204095914
H        16.20586672570800   11.39618665919238    8.63108216015652
C        10.41967335048064    8.16952797410963   11.81951604817064
H         9.72103992752329    8.81245482685624   11.29881752377078
C        13.80122529129218   12.17133083804750   15.50103063803858
H        14.68803528947705   12.74737264345373   15.71568628512239
C        12.47909041015100    7.85129349658656   13.05131410075946
H        13.37279091464364    8.27073942767515   13.49600966115240
C        11.04612544216247    5.98437220761651   12.59919691602493
H        10.83288318029387    4.93036836172819   12.68814075084046
C        10.15548110758362    6.81640166007989   11.94047185602584
H         9.24625835314004    6.41675210033670   11.52045104202148
C        12.20768573710421    6.50055605784578   13.15496729801507
H        12.89654492227482    5.85187656202749   13.67392455025766
C         9.86286336678346    6.27766225880958    8.63240755386311
H         9.14008757808000    5.50057917108592    8.83157787807992
C         6.37530969199653    9.51893263749274    4.36304361736412
H         5.56315809220364    9.39487714244500    3.66313161481264
C        15.13428882375648    9.89823639665281    9.71609374401557
H        15.70399438063852    9.08156682729757    9.30012368257175
C        12.91505539070520   11.85532044524963   16.51881240697569
H        13.11370413139427   12.18810726732100   17.52568816030357
C        11.77596375374026   11.10929312019125   16.25159591127558
H        11.09121391211700   10.86188494754658   17.04806782575870
C         7.38398406523270    8.57000592336441    4.42535527647236
H         7.35586328506946    7.70972489229365    3.77354816029539

