103
CSD_code = SIMJEF | q = 0 | S = 0 | Stoichiometry = C39H56N4SSi2Zr | MND = 5
C        -1.16552562319216    2.37721696170193    3.76171589834344
H        -0.86058482217044    2.45890629359214    2.70514345409310
H        -2.11097251232515    2.93076706905374    3.85534497815924
C        -0.42419055795736   -0.09680767929859    3.46369915429950
H        -0.78292073919253   -1.12197432871990    3.67518909361952
H        -0.44767775193715    0.01861474850507    2.36593122263861
C        -1.51927634025482    0.86975967545036    4.00948418665833
C        -2.78263620680370    0.58182580936228    3.18198028202734
H        -3.03636285275788   -0.47597638270581    3.19905828886935
H        -2.60493788020459    0.86417619374063    2.14657217319747
H        -3.63018901958370    1.16031562407538    3.54273634517549
C        -1.75069235746627    0.66287124024843    5.48490204781426
C        -2.93452436750173    0.12171172109541    5.99344010053438
H        -3.70348451505079   -0.23749006731273    5.33115905513175
C        -3.12511838435183    0.03125236769176    7.35886858642291
H        -4.03080299138053   -0.40059866461655    7.75691415542694
C        -2.13786646044519    0.51715749612117    8.20418104207680
H        -2.25288120444834    0.49142492742780    9.27552730652913
C        -0.98601982037667    1.01678739048921    7.63061770860999
H        -0.18487482446313    1.39071584960766    8.25788202457993
C         0.94429516896468    4.28134177513965    6.82861898808733
H         0.57932119086789    3.53604821254261    7.53655751167893
H         1.06422709464261    5.21323427480523    7.37185329056456
H         1.93962671307696    3.99046812457997    6.48359601263263
C         0.43057428316830    5.88827741050566    4.20042080908221
H         1.51154166496452    5.83155159393575    4.12350269878837
H         0.18255767861297    6.87392026864507    4.58019376745641
H         0.03555002233776    5.81150359825947    3.19153229569348
C        -1.96479998673074    5.08349582400793    5.99486242265102
C        -2.70220716171472    3.95339136765300    6.71503844646464
H        -3.66399328084673    4.30286365796033    7.09381200232987
H        -2.11945482441485    3.58943307654349    7.55936480866956
H        -2.88854243178262    3.11622620351164    6.04575612017967
C        -2.84071107105740    5.59159560472771    4.84952963076868
H        -3.80519298049857    5.93442135790392    5.22668419161346
H        -3.02509919923823    4.81021418351621    4.11610629214964
H        -2.36109372140137    6.42194913658145    4.33947049353632
C        -1.77849874584087    6.23184148593313    6.98905470799221
H        -1.23953244354706    7.05758520645603    6.53282150979991
H        -1.22320299441380    5.90205548675869    7.86291362888004
H        -2.74702874567020    6.60442755030424    7.32414752271627
C         3.69716435020425   -0.37530232722602    4.35334147325047
H         4.04200150792783    0.53669832726855    3.86743950172047
H         4.50718448488191   -1.09575298630683    4.31257125745310
H         3.49997969666952   -0.15781245471949    5.40592724370412
C         1.81044967518211   -2.83695167342227    4.26506022054808
H         2.05813756908869   -2.86988590893142    5.32152487259444
H         2.41080401652946   -3.59218767727433    3.76933919906595
H         0.77084866591909   -3.13608843318714    4.16436918014956
C         2.43715901831083   -1.39281544107170    1.62820848958806
C         3.80697938041397   -2.04917673282975    1.43907942416676
H         3.97288548824647   -2.28221665659650    0.38734993697056
H         3.88203268624228   -2.97376215301266    2.00517613968271
H         4.59863587997841   -1.38186437599026    1.76731815584931
C         2.42470698353013   -0.08968132130906    0.82808135957101
H         2.69833794916054   -0.27907009415383   -0.21044038672262
H         3.12948548906184    0.63042480513353    1.23739735727173
H         1.43442275988567    0.35783597064770    0.83586498941521
C         1.37208767844781   -2.32426827323982    1.04383617872354
H         0.37643724299233   -1.90401850505004    1.16636129709477
H         1.39236664406789   -3.29406520688477    1.53266522349725
H         1.54596558927768   -2.47821072365642   -0.02136502357045
C         1.76362553840609   -0.34574603641021    7.71357674152928
C         0.87897947871660   -1.22425008961483    7.05399227640612
H         0.56278185197214   -0.98300229258403    6.04328631777130
C         0.44873951774892   -2.38894934820537    7.65637978827580
H        -0.23761392377583   -3.03558626324231    7.12661237061306
C         0.88880971473538   -2.74224949590697    8.92235241918655
H         0.54200222847051   -3.64954017898342    9.39242022499019
C         1.80843832648852   -1.92386109876976    9.55914394198798
H         2.19652875495009   -2.20328883273140   10.52857486358163
C         2.24497182126128   -0.75511467232548    8.97299929729247
H         2.98463448620963   -0.15142856015137    9.47923965620764
C         2.87227267681968    1.76014748730122    7.83697392208991
C         2.40722391951728    2.26854424280359    9.06075600012475
H         1.49063953192423    1.88195878127278    9.49077372257676
C         3.10728320675473    3.24914422174815    9.73519566805775
H         2.72228116478816    3.62866029534876   10.67120224359968
C         4.29414235594930    3.74507750828135    9.22138448832570
H         4.83541257637153    4.51497094340571    9.74982730777555
C         4.78707079712704    3.22911400592990    8.03437777797387
H         5.72398360693991    3.58870763872480    7.63610189762557
C         4.09726818683971    2.24288746995280    7.35496703489086
H         4.51291203410243    1.82174023145607    6.44775541331970
C         2.67823146536807    3.59683945097094    2.93388232847621
C         1.72118462649395    2.87604635006641    2.22080732854877
H         1.37180966408266    1.93796148148853    2.65174562008790
C         1.27372705043660    3.34497186071884    0.99983391873693
H         0.52985056017084    2.78802801369222    0.44546115466785
C         1.78033623645168    4.52179644891033    0.46962523693576
H         1.42546789619112    4.88488487342892   -0.48348715144122
C         2.75529867994743    5.22167706629643    1.16313868023514
H         3.16475650925857    6.13102096205234    0.74720878453351
C         3.20691410341687    4.76560179267835    2.38563633474822
H         3.96742578584518    5.30292108394744    2.93227961911073
N        -0.16583838971832    2.92219290059481    4.63329686297962
N         0.92263747328609    0.07756880438389    3.94974201607306
N        -0.77631182428187    1.07193743421109    6.31371768317618
N         2.15485292994096    0.81401364880785    7.08988362242603
S         3.22683044359228    3.01090857495005    4.48398723556229
Si       -0.23491542931697    4.47715341071111    5.32537237946074
Si        2.12346499398774   -1.07905603615237    3.53065477378261
Zr        1.26961961908632    1.57746611670012    5.31612985177483

