49
CSD_code = SIMNOT | q = 0 | S = 0 | Stoichiometry = C15H28Cl2OP2Ru | MND = 9
Ru        2.81356169105816   19.25607665408933    5.90390557202289
Cl        4.30144564954298   21.00865187719796    6.45112339694470
Cl        4.19843519630834   18.68507686162311    4.08839647026328
P         2.06619460739604   20.88582843015874    4.50269692553641
C         1.40006601322309   22.28560600393888    5.49267364023332
P         1.06758049717084   23.85112244126466    4.57684131839221
O         0.51654338149687   23.68646662626624    3.22350755699308
C        -0.08124271205679   24.73332773105518    5.70268469532908
C         2.60988649600779   24.82875802628180    4.65785949944598
C         0.65903067593157   20.45995483157937    3.42693481106283
C         3.21320820025777   21.65202404751014    3.32386952687179
C         1.03261801397294   19.04416850479203    7.27568163795707
C         0.92524918917331   18.05905861827855    6.25785426111522
C         1.96607661650964   17.14210090939440    6.02925805492580
C         3.11288638518825   17.20198714860115    6.87536726705284
C         3.22099063806941   18.16779635094333    7.87332053280939
C         2.18300533178456   19.12448264948551    8.07884608161874
C         2.31767515694446   20.14536524128088    9.16666982688354
C         1.83422622656145   16.03165921753057    5.01462843205797
C         1.36509023629101   16.54824052684086    3.65454998811772
C         0.88411675743340   14.96051320002609    5.56135361315803
H         0.45027644875520   21.94820282260208    5.91926480423153
H         2.10606810635513   22.48566673179332    6.30242631029326
H        -0.24573647995836   25.72907047015032    5.29503015693881
H        -1.03173620937917   24.20277900447688    5.70675856534706
H         0.31007354285698   24.80760993811648    6.71244240365583
H         2.38145216334427   25.81980619213084    4.26745769372025
H         3.37377857158175   24.37532942838764    4.03318284775762
H         2.97302492224506   24.90521399361362    5.67777487719738
H         0.98920567234694   19.70524915335701    2.71460226390988
H        -0.16276402184145   20.06372710953205    4.02060483019555
H         0.33659839885160   21.35754294019600    2.90123993333681
H         3.53756991515700   20.87706643533713    2.62792668303450
H         2.68924074053679   22.44782524293320    2.79454959237433
H         4.08559943923001   22.02507382559775    3.86103991686695
H         0.18852707452331   19.69540998463355    7.48069018108010
H        -0.00063000279296   17.97390534619026    5.70133506164808
H         3.89534955488354   16.45993185825873    6.75328513260160
H         4.08506941994352   18.18118341248450    8.52944492098568
H         3.12758452535459   20.83486910090905    8.91727085287449
H         2.56500914360879   19.66447410147287   10.11270986030900
H         1.39905219720398   20.71577436159895    9.28662363168617
H         2.82369961806843   15.58267989727080    4.87541542278542
H         1.40059852453296   15.74452591059759    2.92368468957293
H         0.34498108126643   16.92281702449699    3.69925003265675
H         2.02770530213788   17.34663615119515    3.32365638828336
H         0.82216620817401   14.12946515664032    4.86341511144267
H         1.23790232682360   14.58205334889591    6.51869875452630
H        -0.11521043209292   15.36864515900957    5.70049597190681

