113
CSD_code = SIMNAD | q = 0 | S = 0 | Stoichiometry = C50H59NbO3 | MND = 5
Nb        1.17504080043360   -0.53516012844576    4.07312385096844
O         2.65466048351728    0.48073857555441    3.13914693686446
O         0.39497660413222   -1.47263574378751    2.77067069698170
O         2.02437496150387   -0.32168396145223    5.63682840985598
C         2.72955333670189    1.78913546556010    3.30618706513989
C         1.53123579091980    2.47554955512774    3.58681580411116
C         1.55744934036543    3.84548008987566    3.78148881739882
C         2.76220687921602    4.52878418085647    3.72502306917941
C         3.94044664609148    3.84949745371867    3.46493715974167
C         3.95003083511061    2.48096975987640    3.24524999524802
C        -0.00353389888153   -2.43695168433448    1.94827516886963
C         0.95540658881009   -3.34729669934702    1.45131784819494
C         0.54567562845142   -4.34302638393275    0.58148588257704
C        -0.78336041711028   -4.46650679278843    0.21596766706586
C        -1.72263769756280   -3.59386000685657    0.72882020833691
C        -1.35976594894662   -2.57733668235463    1.59981055406352
C         2.46687803791603   -0.43853461443005    6.87609266884813
C         2.55221366467210    0.69616068568512    7.70431875481847
C         3.00438880611070    0.54078214509817    9.00436486066986
C         3.36914713888345   -0.70102102767743    9.48847512463097
C         3.28732401671981   -1.81470145156569    8.67080573579806
C         2.83712845903437   -1.70978928061006    7.36630546068672
C        -0.26247691788921    1.61290446609218    2.15060170226022
C         0.30782052764428    1.60438884459656    3.57152723080581
C        -0.76729460732936    1.99970077157261    4.58995181483642
C        -1.32235566414642    0.79969607152812    5.33530788657728
C        -0.64898643296601   -0.35683379736545    5.27047698884460
C         5.60009065263578    0.99540728303713    4.33742005940226
C         5.19972471379018    1.66262654814543    3.01605351135768
C         6.36552609601371    2.45939506609362    2.43966830617960
C         3.22027711788819   -4.45615217022976    1.78250373200648
C         2.39624283777915   -3.17377091457107    1.87649282035666
C         3.04637916538936   -2.06090089812126    1.04365258375753
C        -2.97949465626292   -0.77742098195187    1.00544021787260
C        -2.39662628821238   -1.62072605244659    2.14387947092369
C        -3.51944321925920   -2.35716801604025    2.87831671294606
C         0.97261276761422    2.62419717797749    7.93364110928239
C         2.16058466650066    2.04914074961413    7.15989170088566
C         3.34618328688395    3.01545518723796    7.18827683415673
C         3.97732709160778   -2.87190083599854    5.48886832967581
C         2.76062886942072   -2.89216806673659    6.42587154988471
C         2.66177144999899   -4.23799863440627    7.13883525276719
C        -2.56436772665707    0.99603849479234    6.10054288934753
C        -3.50954032808588   -0.02773919435282    6.17823010159771
C        -4.68049751807043    0.14061045096597    6.89077234450950
C        -4.93604786149921    1.33671275183641    7.54127538362373
C        -4.01179735792187    2.36441882642935    7.46477638931303
C        -2.84143804139772    2.20027980204093    6.74708326801224
C        -0.86579021423232   -1.50863897238339    6.14295415212363
C        -0.91306837106464   -2.81275940833053    5.63051952387923
C        -1.00786346511367   -3.90256745061617    6.47537625798912
C        -1.02871242988278   -3.72239189503058    7.84918671457534
C        -0.96100588909933   -2.44051096591769    8.37233330406917
C        -0.88454194646724   -1.34678816296797    7.53377915561330
H         0.64025668067115    4.38318497981798    3.97747122146162
H         2.78282474566086    5.59679259294117    3.88540839628614
H         4.86710127457354    4.40141001719175    3.43491256449198
H         1.26763479971971   -5.03628888806490    0.18046603250063
H        -1.08438779867403   -5.24729067794613   -0.46619657694173
H        -2.75819045267649   -3.70251697657923    0.44466063794917
H         3.07519298260489    1.40451809524664    9.64834299682906
H         3.72169131036413   -0.80414472949635   10.50386924162891
H         3.58110742293508   -2.77559425346681    9.06217541513082
H        -1.17077105495352    1.01658334023878    2.09464555483179
H         0.46868483110488    1.22808637303709    1.43493605101267
H        -0.50545760321675    2.63886179881242    1.85932390393716
H        -1.58512544040480    2.54014832182423    4.10143170314044
H        -0.32718522379300    2.66920589672680    5.33583189233119
H         4.75493957171847    0.44352319301321    4.74956067152975
H         5.90463108297205    1.74859439039674    5.06237323280514
H         6.42865834788061    0.30566679787263    4.18624637352501
H         4.93405668763203    0.86910755386823    2.30615443121142
H         7.17652920414999    1.78554858060983    2.16998287000744
H         6.74905612028780    3.17077647965846    3.16747505758065
H         6.05643851375601    3.00137806286363    1.54874124950344
H         2.71894789567395   -5.27852404162366    2.28920184994465
H         4.19196996241176   -4.30303289067677    2.24841165423676
H         3.39104629676535   -4.73497549441474    0.74522972207877
H         2.39700886484588   -2.85266804275583    2.93496655689487
H         4.08377758844403   -1.92394110123846    1.34425058003726
H         2.52038412639307   -1.11470931788844    1.18348257292562
H         3.02044791669706   -2.32121474642420   -0.01370343876903
H        -2.18647621062142   -0.29517604355531    0.43771922708495
H        -3.64133521429725   -0.01135668329110    1.40434342060365
H        -3.55119628959295   -1.40259562678510    0.32327859982805
H        -1.90346771548717   -0.95400280353615    2.86500707045483
H        -4.21650939250034   -1.63569318152185    3.29955571703920
H        -3.12149994076230   -2.96473175921024    3.68809155441671
H        -4.06896505679213   -3.00695366517281    2.20145553271386
H         1.22436471764874    2.76299172726356    8.98262922082680
H         0.11780064732219    1.95356005442674    7.87047723832344
H         0.69208864079028    3.59138813211756    7.52063569823160
H         1.86077598402959    1.91825768026195    6.11200338713236
H         4.18810603477509    2.59126511676725    6.64725227011089
H         3.65760078086290    3.22256042023335    8.20962514024369
H         3.07311040272655    3.95270471196125    6.70860685169794
H         3.95596300009626   -3.73232066157769    4.82170568519616
H         4.89591501949078   -2.90999516463364    6.07275446571979
H         3.99105635966562   -1.95888050224732    4.88881603942106
H         1.84624499342512   -2.77737451130369    5.81305194015846
H         2.44564194350642   -5.02147895511797    6.41500474186380
H         1.86081544714735   -4.22109594826287    7.87419789590469
H         3.59706246693473   -4.48764201622081    7.63469369608975
H        -3.32189147122839   -0.95781052223342    5.66356267764003
H        -5.39993926269933   -0.66426182763693    6.93728112531812
H        -5.85047561741404    1.46791309989935    8.10080700555137
H        -4.20392642013216    3.30149832229662    7.96756166361622
H        -2.12919424458330    3.01039007673461    6.70675305630392
H        -0.89213813715525   -2.96957173652399    4.55491978273284
H        -1.05514140385396   -4.89987118860555    6.06054872685136
H        -1.09264738624950   -4.57645742654464    8.50723894872366
H        -0.96596184436560   -2.29365124455681    9.44261532559896
H        -0.82770984781984   -0.34972271543263    7.94683483752627

