45
CSD_code = SIMPIP | q = 0 | S = 0 | Stoichiometry = C17H22Cl2N2ORu | MND = 9
Ru        2.70474415709081    2.05439900147770    6.01148142430197
Cl        4.98399293963235    2.26626689347448    6.51606601777039
Cl        2.28521535034993    2.22099825136621    8.31515471016244
N         3.13728629561442   -0.01276937326779    6.64787614746921
N         3.09091051805515   -3.58171988701750    1.30081889244985
O         5.26067742600886   -3.69027640651450    1.87175992702695
C         0.01206107569451    4.14593400774417    6.62000253156159
H         0.10505164560132    5.22696809310655    6.54538602283951
H         0.30441357176777    3.84896220354077    7.63074333078626
H        -1.02631856792251    3.85737712633213    6.47155318723035
C         0.90526007562352    3.45846105559275    5.63837224173180
C         2.10172245285741    4.07230365708899    5.19021230340969
H         2.34217884650372    5.07743307657430    5.52131399151264
C         2.92941412480418    3.43489630091879    4.23504690034794
H         3.79983255942465    3.96269605504693    3.86325605431636
C         2.60718733653386    2.16381768206805    3.71692031367198
C         1.44926512417104    1.52852619673506    4.23422182881721
H         1.15988377003744    0.56414655759054    3.82611960433001
C         0.58811499552621    2.17347266130234    5.15013443388692
H        -0.34119497729452    1.70154645988284    5.44632498981924
C         3.40153920573989    1.51095997899531    2.61164498388857
H         3.24669823831868    0.42761646708725    2.68334186352013
C         2.85802057360509    1.98735696207650    1.25902452250343
H         2.97371216836762    3.06492696780442    1.16209231683080
H         1.80172511452246    1.74470103494098    1.15819602197822
H         3.40360298214168    1.50724911689409    0.45067927352429
C         4.90049143616932    1.78853942432686    2.72499717728913
H         5.13872050534695    2.79426158143853    2.38710978436841
H         5.45367375601449    1.08581080905218    2.10774282228485
H         5.22942744636228    1.68014915123994    3.75641649170643
C         3.37380816940156   -0.87285087366338    5.55518609388296
C         4.64046904740244   -0.92102097411817    4.97449769810397
H         5.43359919098640   -0.32025931760914    5.39463114828436
C         4.85700844135831   -1.71186668024376    3.86622031086911
H         5.83174395900604   -1.76521619397553    3.40670686906114
C         3.82336652246501   -2.46670613326101    3.31285780676454
C         2.56930194021332   -2.44256054940053    3.91686492623591
H         1.76543991022691   -3.06092526259495    3.54447924617898
C         2.34739845485150   -1.65683078818992    5.03230403432655
H         1.37506822849054   -1.64808575801272    5.50561002042686
C         4.13979206945569   -3.29698075789097    2.11396967737807
H         2.18025428574345   -3.18059101790594    1.42619777646053
H         3.98805453705322    0.13670912697553    7.21098100727603
H         2.37095686910983   -0.31934049081228    7.25422350282146
H         3.27152822754853   -4.11788543618224    0.46855977057933

