55
CSD_code = SIMPOV | q = 0 | S = 0 | Stoichiometry = C23H26Cl2N2ORu | MND = 9
Ru        9.14671518386035    7.78916930549689   18.03528764295104
Cl        9.75051704496564    7.65304136120007   20.29969872929077
Cl        6.91325684403926    7.62521823594997   18.72787211701142
O         6.33842182586958   13.59511599521617   14.12035681144969
N         8.79993892728464    9.87336065200085   18.66928936779419
N         8.43988291701747   13.30832190644742   13.27107487248416
C         9.04867594496388    7.63635905212641   15.74474448726037
C        11.86051414276068    5.67753880909100   18.45572732030057
H        11.73906072674238    4.59734628944799   18.42394992676392
H        11.66964671637437    6.01049994041691   19.47926840823364
H        12.88614378949963    5.93722624051982   18.20271689982206
C         9.65733983989896    5.74927235366071   17.20655378446716
H         9.43520216643415    4.75352391643604   17.57653520800356
C        10.89421425481141    6.35671000970624   17.53982780174245
C         7.87212389705025   12.29764972209857   15.37018155010827
C         8.48607270527059   10.72079090121874   17.58672365125847
C         8.17059894484069    8.27879848561057   14.69825374754126
H         8.34106800993888    9.36157531437664   14.73769166152483
C         9.17144474707606   12.26334255583389   15.87002828927671
H         9.95023140808784   12.87187850796179   15.43188945147134
C        10.25290836114836    8.26682232282910   16.14986087865687
H        10.51687190845711    9.22013115615927   15.70045420797105
C         8.75863140654877    6.37845623253174   16.31228287462703
H         7.85447139170305    5.85429008033819   16.02555930830446
C         7.17704446391171   10.77770106226590   17.10980843955419
H         6.41420625490360   10.19079058606592   17.59973565684339
C         8.48603831550552   15.50834935242052    9.71788912119565
H         8.51476662589385   16.07376124797576    8.79891776431938
C        11.18231095663266    7.62814539833547   17.00146106951215
H        12.13850620959095    8.09402308369872   17.20817754967057
C         9.47505272684439   11.48602367997747   16.97213492263859
H        10.48246912148998   11.47204716741054   17.36495035245251
C         7.45869454658422   13.13771929843212   14.20522611297303
C         6.87910054107485   11.56107888157127   16.01548238165923
H         5.86982874254917   11.62254674427177   15.63907785763606
C         8.59515315197067    7.77345354185232   13.31393890497005
H         7.98977981458711    8.24603710093805   12.54465146995493
H         8.46084612819241    6.69579727689331   13.24639494904126
H         9.64198369656601    8.00174804978834   13.12194406315221
C         8.40871301577520   14.05393009271615   12.08773850586155
C         6.68379715626141    8.01967207921236   14.94117572919313
H         6.08755946080720    8.71671771747168   14.35847097055183
H         6.44292855635204    8.15032443710961   15.99414606391469
H         6.40894228443524    7.01063018578611   14.64344406559212
C         7.31691661718853   14.82887652631137   11.70888124113288
H         6.44275564643773   14.86113326009573   12.33652946352907
C         9.53716152409764   14.01418810183820   11.27011391460595
H        10.38866054404855   13.41329114529371   11.56156496139516
C         7.36471519578654   15.54850830159718   10.52879812557201
H         6.51351644256431   16.14780651500730   10.24243551775468
C         9.57329687353229   14.73714270483013   10.09387047612491
H        10.45394293905013   14.69820601589005    9.46983854684778
H         7.99665437833814    9.74524160474728   19.30309788920452
H         9.30646265711927   12.81142001936990   13.42316175413490
H         9.61804230727110   10.17684947415174   19.20551316068752

