140
CSD_code = SIMWES | q = 0 | S = 0 | Stoichiometry = C62H67N8P2Sc | MND = 6
Sc        4.31458213966042    3.65268004574244    3.89284014809668
P         4.46432467695927    3.16957035165480    0.95932923352818
N         2.85990600861375    5.31567337068629    3.25164097545237
N         5.46189745073849    5.46700397375549    4.70670813386340
N         3.45982162161742    2.80520221386765    5.32403668101031
N         6.49233748731863    2.76910580430385    4.16725751820525
C         3.04721885000345    3.12227067751143   -0.19806434673716
C         4.10452254337391    0.78964887777854    2.10733197062541
C         4.08492689244497    0.07070000452637    3.30899191667821
H         4.13054513438840    0.63334224320059    4.23608340262933
C         5.91118812252718    2.89774157242375   -0.13502843973261
C         1.86594490009595    6.06924925084171    3.86354179873127
C         4.86587009526929    6.20952456087518    5.64479351235656
H         3.93010887553774    5.82297243562386    6.02906495815089
C         6.58562290533776    7.89874233288147    5.63272419686976
C         6.62706920873122    5.92882147685404    4.24574202498080
H         7.11837436942977    5.32086277221755    3.49455633020393
C         2.42507715052276    2.55884354598171    6.09863608767986
C         1.15167382263833    2.10345570230911    5.60353249377247
N         7.11265858039147    9.07165566920599    6.06176932287478
N         7.89437324043773   -1.13193554012703    3.54537277637391
C         5.36660141397900    7.39705575672036    6.12571611029953
H         4.80720129295331    7.92571399054810    6.87830888645407
C         0.41454852688037    6.34612024475029    5.77650537649321
H         0.07475567463405    5.99370328644502    6.73963492031423
C         7.22061187548894    7.09706054452425    4.66715272275470
H         8.16481521606587    7.38475827891041    4.23666831440235
C         2.66801828244572    6.12716635940405    0.48661608681456
C         7.48709538898822    0.14447958714901    3.77275993786723
C         1.40449257755159    5.64779805129327    5.11564277721721
H         1.83445245335490    4.75321537925588    5.54619056797499
C         7.10746083335197    2.40653643625717    3.03980804186453
H         7.20302987484189    3.17289945991481    2.27478606416583
C         3.95062215488834    0.08408231497331    0.91148934277447
H         3.90671582167857    0.63346663016230   -0.02285053147062
C         3.13258793388039    3.47605419488301   -1.53836694603655
H         4.06639919019521    3.83434848617079   -1.94743569222380
C         6.54253159505263    1.66412539031219   -0.24123054264063
H         6.17409977002947    0.82890605189487    0.33509540817711
C         1.84811543593750    2.64100380724067    0.31555299169026
H         1.80464929681945    2.35603932204995    1.35832950652380
C         7.63715098849992    1.50893894095591   -1.07359848987331
H         8.12029438329151    0.54482783998706   -1.15165317999577
C         1.29245640626293    7.21444215490678    3.30486679341650
H         1.63239561008200    7.55936616217408    2.33463157201279
C         6.39906977677899    3.97186943900180   -0.87347186616444
H         5.90921363477079    4.93170611674493   -0.78562576435774
C        -0.14377899268806    7.48308812118320    5.21208999353852
H        -0.91817649916777    8.02965386507101    5.72961214645110
C         7.62429778877044    1.15281098740799    2.80200129229205
H         8.11032747769117    0.96093201436395    1.86072227759234
C         2.53672677807211    2.71107614253950    7.52569867113650
C         3.98187604663391   -1.30457962102609    3.29973266066173
H         3.96850532705925   -1.84344397281992    4.23756408876299
C         5.91241172826985    7.37404572663973    1.43326692688879
H         6.22179137415006    6.55996893530114    0.79421239742402
C         0.13651358359005    1.78209057586429    6.47537159932872
H        -0.80964076430059    1.42867541747820    6.08454614115793
C         3.18794028921702    6.79626053793180   -0.61293313123756
H         4.20816882611429    7.15401101133966   -0.59042529209027
C         0.82490970973681    2.88359044609715   -1.83622128016738
H        -0.03803328479723    2.78838880751408   -2.47885200471858
C         6.45874322082990    1.84557772643692    5.13377307857020
H         6.01481780979125    2.16289185321664    6.06745098256854
C         3.84574747194820   -1.29371421629042    0.91283277789860
H         3.73533072120135   -1.81845549483114   -0.02648597179755
C         6.93393316617503    0.56057300087502    4.99718310720712
H         6.83338243393094   -0.11821457889120    5.82618658252954
C         0.56110756753956    5.90606959392139   -0.64287104402723
H        -0.46393096986176    5.56597133140944   -0.65138055354006
C         3.83212412424259    3.25535098299498    8.08471503338257
H         4.44723171315880    3.54340517098087    7.21851638396800
C         3.88024654631344   -1.99970844913684    2.10322649538502
H         3.80724584215440   -3.07734408297342    2.09954433733925
C         7.49066622012181    3.81623412720174   -1.70658827373100
H         7.85848073067438    4.65603642941261   -2.27925927347708
C         1.35093904919501    5.68273480863382    0.46847393781376
H         0.95512318415941    5.17373565379420    1.33722562453303
C         2.01874010359916    3.36327987700771   -2.34998841694275
H         2.08538182931030    3.64397137555954   -3.39129502242320
C         0.28905228693290    1.89749726782641    7.84959593458624
H        -0.51933601414022    1.63205255241311    8.51603615945120
C         0.95501998124425    1.99436123910282    4.10813482218278
H         1.90072069262992    2.35076488389076    3.64496396909922
C         1.49146966234789    2.37132783176610    8.35350719822917
H         1.60457522828619    2.47756122889107    9.42538636494533
C         8.11207951926506    2.58190930670290   -1.80966280867272
H         8.96428605980281    2.45749048099318   -2.46165687376268
C         0.30137400430952    7.90880083219835    3.97229796003917
H        -0.12469716987854    8.79171891368038    3.51526701085388
C         4.73072168489223    7.25400038839329    2.15904190074910
C         8.36570814406943    9.54652238708755    5.52780297101023
H         9.18148730607712    8.85661713423100    5.76437132133871
H         8.60313447709400   10.51460315628678    5.96133990903747
H         8.30790882631607    9.66070261895972    4.44183522793776
C         3.60032046345356    4.49891790627060    8.94610411602532
H         3.02297817905700    5.23773498840113    8.39398737896649
H         4.55205636501001    4.94531359370661    9.23342640125662
H         3.05391347166956    4.24723512546798    9.85233356673004
C         6.69022153812201    8.51108598450042    1.53849497886348
H         7.59956636958375    8.59863319828975    0.96009073638327
C         6.30118322551935    9.54152555956062    2.37923026499265
H         6.89554501204695   10.44215609850333    2.44475432981066
C         4.58203871653337    2.18396250077055    8.87970604329431
H         4.00193735295439    1.87650743756346    9.74745073520560
H         5.54523755477478    2.56055395653671    9.22373886033126
H         4.75124183550088    1.30916636715732    8.25549764424900
C         6.41847505286463    9.86535245720863    7.04666704650977
H         5.42683192604069   10.15681918064989    6.68859014127856
H         6.98601466583067   10.76937926094160    7.25212242144432
H         6.30142726006423    9.31518983422198    7.98472670255888
C         1.08411337013075    6.56784869462141   -1.74223958499985
H         0.46673897417072    6.74202615810058   -2.61128726564051
C         2.39638585240300    7.01127155032866   -1.72646531969093
H         2.80231777574575    7.53077566609922   -2.58288637687038
C         8.18726687894682   -1.55118355921545    2.19404754730879
H         7.34238397556703   -1.35969707051935    1.52404498524293
H         8.39752016710834   -2.61767869066886    2.18324587148862
H         9.06808146031803   -1.03000173502356    1.81153552618990
C         0.74097944337996    2.51988668877115   -0.50198121044127
H        -0.18704526252977    2.13833157173086   -0.10117236320170
C         7.62288879886455   -2.15652847753914    4.52662251879286
H         8.06554131205900   -1.88548597847074    5.48632281522496
H         8.07307769890882   -3.09229435458484    4.20370208297854
H         6.54787563883244   -2.31264317963126    4.66225439432420
C         5.14831457910759    9.41296620920386    3.13554029217697
H         4.85005276960305   10.20675885464241    3.80559813772697
C         4.36713075387849    8.27616746800898    3.02937467435369
H         3.47458918741011    8.17872874718921    3.62955632728970
C         0.70790332661123    0.54211173104364    3.68989491009730
H         1.50310248156845   -0.09789377042600    4.06290149803013
H         0.67414995718725    0.44623013438420    2.60432415397788
H        -0.23868457783078    0.18738758177137    4.09389743966464
C        -0.19524102137628    2.88340550931726    3.62517410587968
H        -1.13423781964032    2.57627821975501    4.08181314085479
H        -0.30795881205705    2.81498855736309    2.54284054652402
H        -0.01105108337744    3.92226655084754    3.89068522951765
N         4.78542935398447    4.62618701772624    1.59307057889320
N         4.28898926300288    2.15850450023583    2.18496185252474
P         3.68781224221411    5.75874205983228    1.96091168061501

