170
CSD_code = SIMWAO | q = 0 | S = 0 | Stoichiometry = C72H90N5P2Y | MND = 5
Y         6.88624964174503   19.61246914842160   18.17813504219743
P         9.18807420803905   19.29961450370538   20.30626942457089
P         9.86528184282824   20.15386096461716   17.35988580357480
N         9.20901009273159   19.64287534593744   18.73526097004705
N         7.64570142539799   19.47050632545592   20.67373300484037
C        12.03895063172114   19.62317968369829   15.72857139819432
H        11.50693065962089   20.22248751885246   15.00245375497295
C         8.92146094356601   19.56810466225833   14.96462903007386
N         5.94586655692117   17.70388732623825   17.92984953841844
H         6.09639384105326   17.13767951829001   18.76747404315116
C         7.19944138932560   19.80192821250093   21.96938702150617
N         5.76642834366118   21.42047048824717   17.91311637088305
H         6.22808594340167   22.00903282817166   17.21634733085916
C         4.26752073511115   15.95186170242542   17.71301226174863
N         8.68934976837835   19.91587338744664   16.31026184445712
C         9.78847474091801   17.56692408067891   20.43578249577759
C        10.27570790993806   21.93449200036892   17.55869349738164
C         9.69468167498755   22.84520561570551   14.10458492557549
H        10.52818988530540   22.48035946905066   14.70205395681800
H         9.48823229815050   23.87080752867305   14.40526398605360
H         9.99418849467269   22.84334765468059   13.05853485395801
C        10.37372461803691   20.22403069822326   21.33170309108873
C         4.92112253854729   17.12066158736129   17.22348737329899
C        10.30432127532888   20.07661171167362   22.71386990245810
H         9.54153892316829   19.44410293452746   23.14700732927931
C        10.68570797897572   16.32712368799333   15.45997775681521
H        10.52947369752307   15.62579319644770   14.64373154302267
H        10.90879308404373   15.75352904440258   16.35828968959819
H        11.55015704377367   16.94309240801449   15.22435765973597
C         3.50527750411361   16.98061371884127   15.25689598718858
H         3.19178826606537   17.37859975536871   14.30328078425367
C         4.02675767159628   23.01027945306761   17.29786421876038
C         6.70083439545720   18.80357196461718   22.81929942364385
C         5.09860034239974   18.87454085349417   15.33863454731889
H         5.93383581170677   19.24577385756174   15.96965015721364
C         4.65555574550589   15.34941283152518   19.05119661415504
H         4.94982703055637   16.15794897348640   19.73179084302031
C         9.44032050649243   17.18639522811670   15.69003640462257
H         9.55510733073121   17.68707207384745   16.66242492155065
C        11.51575775254128   22.49682147307688   17.28082979237207
H        12.33162048435753   21.87181371142603   16.94404836970386
C         6.71293791496136   21.45566314234899   23.64692802034644
H         6.70810783582890   22.48341433766900   23.97677218062808
C        11.20397110198951   20.74808478280027   23.52174822718653
H        11.15086039404264   20.63508729925293   24.59473694321997
C        11.47369329106018   19.39426731457833   16.97914762456822
C         7.21875825206940   21.14208387631881   22.39457059352725
C         5.67006326163948   18.58543077379684   13.94660071169547
H         6.37520448896696   17.75993758368282   13.98309610335374
H         6.19398630034462   19.45780949090953   13.56261796929259
H         4.87777057001733   18.32889323506958   13.24785736510555
C         4.50451410319083   17.62750517658256   15.96460815725633
C         2.90177303055238   15.83245524010882   15.72778059097544
H         2.13495174771734   15.33680771767152   15.15168980826988
C         9.16091474791242   16.65303942427063   19.59486053203326
H         8.38792771617042   17.00845421375317   18.91995438688809
C         6.72100855751299   17.35203070856467   22.39935904621705
H         7.01071567561272   17.30895485252354   21.34175886031509
C         5.34997523095962   16.69279413534966   22.54770115277489
H         5.03644265697361   16.66703714594358   23.58846470159947
H         5.39100996021584   15.66816179259131   22.18398968180671
H         4.59881499893096   17.23582694447606   21.97834647164406
C         9.26388197080313   18.24647988820003   14.62809685987484
C         8.45607488020627   21.96866387737207   14.31107644823156
H         8.18654137323476   22.00357568282552   15.37436896781483
C         4.48576229532077   21.89726023670937   18.06164516261379
C         3.93524730085213   20.12887054704701   19.85851031638657
H         4.99754937468390   19.84979266922225   19.69301225581616
C         3.58829960735855   21.33462632000993   19.00668375145727
C        11.71195044745072   23.85637157947533   17.45036664506743
H        12.67823051192936   24.28837803693477   17.23382267618761
C        10.67659280108355   24.66018701366852   17.89646345070894
H        10.83428729094301   25.72036750721477   18.02826338572251
C         7.76017522602727   22.23784993063246   21.50669057482484
H         8.35746000474848   21.77146460757153   20.70975580973409
C        12.23571176888886   21.71475958083646   21.57906725747261
H        12.98706443091643   22.35258541218624   21.13703618561257
C         3.76748993713865   20.42772682951137   21.35194474393204
H         2.72161245251722   20.58931098185688   21.60044706013348
H         4.32750734761067   21.31514328899171   21.63287683292215
H         4.13445248213103   19.59625677857106   21.94926700728696
C        10.79765857091980   17.13422514671609   21.28652893890192
H        11.30227339625664   17.83928222676073   21.93292593097934
C        11.34097540667353   21.04182076824821   20.76715346733131
H        11.39051106669301   21.14317648938546   19.69149121340637
C        12.13916632315916   18.61243899864969   17.91192763755403
H        11.68875774443185   18.44011204060322   18.88055900410999
C         3.29556436786500   15.32964401806089   16.95339393846748
H         2.82374429332261   14.43121219404348   17.31886507455851
C         7.76584073419042   16.58274859773248   23.21255684241591
H         8.74872646064740   17.03803696531372   23.10591172292121
H         7.83208797837926   15.55272096064396   22.86680168054295
H         7.50204084481374   16.57819446630664   24.26803468555334
C         2.76787637555527   23.53410921328943   17.52085659860334
H         2.43801184782804   24.39326946153009   16.95836244740052
C         9.43889304581471   24.10311568320923   18.17722827888712
H         8.63424579367657   24.73244638167765   18.52805907320737
C         8.20123132328366   16.29032493868153   15.76394406964452
H         7.33135580128545   16.85941417918684   16.08682035611251
H         8.37069944549891   15.48000839958457   16.47095026338760
H         7.99011254809285   15.85241767759662   14.79006125169047
C         9.23869499191806   22.74650807851111   18.00617983210496
H         8.27795264949892   22.29271858024709   18.23306657660000
C         9.42381701564337   17.91639450401377   13.29085624753133
H         9.67090380431598   16.90132859094896   13.01935751396100
C         1.90683896678115   22.98052764478245   18.44936973918282
H         0.92384955395858   23.39906448021291   18.60468248492800
C        12.16928248314859   21.56647208274946   22.95497246195296
H        12.86949942518303   22.09062029661344   23.58836159763994
C         6.21973629906152   20.47509012507088   24.48595318267801
H         5.83730225309398   20.73700627857865   25.46142867683292
C         6.61044629113371   23.00862675631743   20.85258974150528
H         6.04600213644540   22.36499451762900   20.18048315976542
H         7.00138890803792   23.85023051107834   20.28378219171767
H         5.93448971654585   23.39777676480195   21.61179185556310
C         4.04061520312134   19.98011578011070   15.25713985871204
H         3.20709178814215   19.66487445765669   14.63356905862189
H         4.46536194829073   20.88373772065518   14.82457220176528
H         3.65589272747762   20.21924737853418   16.24663611517942
C         8.67215994240140   23.20888341669307   22.25978628098899
H         9.22013842534848   23.82543215729219   21.54883572048638
H         9.39253534475002   22.67413610534702   22.87409806052085
H         8.09382719480321   23.86908084331860   22.90170734626539
C         8.77276379345701   20.53354302695102   13.95784156935725
C        10.53857608164343   14.89464894885526   20.46019844932106
H        10.83199713242555   13.85537951629686   20.47103920801695
C         4.92237502615083   23.66082386069361   16.25909338209424
H         5.55968290675024   22.88985542094148   15.80844718586304
C         6.22421234296782   19.15727179837634   24.07297939062380
H         5.85243398485217   18.39268234589153   24.73887894307852
C         8.96452213075508   20.16650927497518   12.63418116740200
H         8.86913151289683   20.90705741610607   11.85407369419694
C         9.27962220534184   18.86482323541976   12.29665000897068
H         9.41719366391640   18.59085203981733   11.26105816818791
C        11.16859848803578   15.80044571779726   21.29647258545313
H        11.95450836492472   15.46904779787626   21.95963268124716
C        13.36922889380651   18.06324467173470   17.59937011760931
H        13.88661764061052   17.45493688083042   18.32670517987120
C         3.06437013192786   18.93379391163103   19.45594756570773
H         2.01251646915656   19.15723084500836   19.61960190121769
H         3.32123244818595   18.05656763334760   20.04643696238961
H         3.20305316133417   18.69338205752817   18.40363603261045
C         2.32597099627831   21.88042547087061   19.16930871388340
H         1.64888202567826   21.43981619871147   19.88581945060551
C        13.27020521886781   19.07311415285302   15.42104208471579
H        13.70991679495458   19.24863460912745   14.45013379702294
C        13.93602807690810   18.29578831152262   16.35650845636255
H        14.89724706853449   17.86762137570484   16.11365946550267
C         5.85123253197772   14.40785516403844   18.86552176818767
H         5.55864214565300   13.55470182135616   18.25666220971901
H         6.21202196232483   14.04239542996759   19.82646431735501
H         6.66439665120226   14.92055203994774   18.35675264523410
C         9.53509875193856   15.32309252637219   19.60509813426134
H         9.04895548717066   14.61580306081215   18.94926282615214
C         7.28240778122649   22.51707742153386   13.50016560276321
H         7.52303533846103   22.56379307294049   12.44093348349223
H         7.04172556527494   23.52442602278800   13.83346269375014
H         6.40285842326844   21.88891805937193   13.62333347844378
C         3.51111565447989   14.61119377193766   19.74782226826716
H         2.61183765680274   15.22267590623615   19.75729221372805
H         3.78834699986329   14.39055654423144   20.77757048665057
H         3.28803975072642   13.66684237099101   19.25798176387523
C         4.15399800889729   24.29970914337088   15.10074829811671
H         3.41062918680141   23.60936595001721   14.70891605438852
H         4.84380690033670   24.55500571944472   14.29774411011756
H         3.65489889837361   25.21495837993107   15.40861370116832
C         5.82088653002582   24.70472545239735   16.93236181119114
H         5.21380716428496   25.52091122757964   17.31902644727024
H         6.54243828021491   25.11249115516543   16.22513651749838
H         6.35979696394753   24.26160027673653   17.76659914225232

