39
CSD_code = SIMXIX | q = 0 | S = 0 | Stoichiometry = C16H15NO6W | MND = 6
W         3.78808033491750    2.86697283010176    4.13496823740610
C         4.63689964923635    1.08174047331295    3.87804760787788
O         5.12824861264685    0.05998541928201    3.72733346610414
C         5.57402597241822    3.69402954954395    3.80069835461898
O         6.63033765321591    4.09384011526102    3.61533491564024
C         4.29878864007523    2.81322464576992    6.06685393595910
O         4.64356734263666    2.74357486305541    7.15395339705984
C         2.03057669635166    1.96772292332059    4.44867301088825
O         1.05044119769502    1.39732204435271    4.58708409845200
C         3.31392375963918    2.86413813386793    2.19557297175305
O         3.05673714032755    2.79138778316453    1.08259310205953
C         2.83835955951113    4.82876353315159    4.44732778900878
N         2.97770565199178    5.90699629776827    3.70903491754213
H         2.47719973095007    6.75655317305272    3.96884486102186
C         1.94195220461416    5.05538004578261    5.56059430236549
C         1.51951057059693    4.22714327129303    6.58003120161454
H         1.80043590780842    3.20586779287130    6.73843979577106
C         0.64250759401907    4.97950542293564    7.38388787203329
H         0.12901933471305    4.64976422140897    8.26327738936060
C         0.57907635652470    6.21668395860039    6.81315027260977
H         0.03708654227738    7.10225838322803    7.08413656115263
O         1.34808173016341    6.28100785661341    5.72497869777133
C         3.77810569969706    6.06824452600417    2.51984548110294
H         4.25769433996655    5.10932247467707    2.30221974185126
C         4.85974655314488    7.12809112550404    2.74679535113178
H         5.48533597614496    6.83387816857710    3.59182383951261
H         4.39056741890309    8.08610757957716    2.98676036073420
C         5.71073373822117    7.27451129976874    1.48889845516474
H         6.47558611491247    8.03588742659511    1.64996715107231
H         6.21723505680148    6.32875810521676    1.28687575733364
C         4.84049114713974    7.65274191409688    0.29413037753957
H         4.38531855544383    8.63013922963526    0.47127109163895
H         5.45710593043935    7.72995231437303   -0.60251936190493
C         3.74394399961399    6.61386644845630    0.07908394226563
H         4.19640495751077    5.65032603908250   -0.16310985683218
H         3.11116585457265    6.90689609016663   -0.76022700049741
C         2.89197812058250    6.46525287122007    1.33609377453955
H         2.39106373791010    7.41246661844692    1.55412093529691
H         2.12636061668330    5.70199503083955    1.18305320198716

