44
CSD_code = SIMXOB | q = 0 | S = 0 | Stoichiometry = C17H23MnO3 | MND = 8
Mn        5.04904030206435    4.76310373109937    4.54370714237584
O         6.18817036592529    4.69551720174193    7.23647840426606
O         4.46458348849718    1.92363380402679    4.93461329798207
O         7.25489001715278    3.67270458497072    2.94608386198783
C         3.33631007969981    5.64729641806252    5.54902104863728
C         2.97847035422693    5.06106001383711    4.30619653393371
C         3.50570120926507    5.22345462545929    3.00661919792002
C         3.69463016262291    6.58132632071084    2.32629684760194
C         5.16071057701718    7.01749856523322    2.16044817956368
C         5.96481828064078    6.82640032272793    3.43761241813684
C         5.68237123455320    7.29115493272871    4.68434476050375
C         4.40764214891128    8.00453057990516    5.06657731056551
C         3.47007122235447    7.13019634721194    5.90346225247254
C         2.66293817375598    4.96764772835467    6.74014912033217
C         5.79640802322030    4.76104390992438    6.15621884884617
C         4.68403336923927    3.04693030709955    4.78314969478491
C         6.37798458057289    4.15203862093382    3.52497544890424
C         3.01957064235766    4.18477264033748    2.00455957490577
C         5.80284165746309    6.19571971947829    1.03607521781077
C         5.25036792718687    8.49733698794500    1.74831716227676
C         6.80108212091614    7.48000612288161    5.68091493096815
H         2.37054791371263    4.15400886566659    4.41817150503830
H         7.01464543204609    6.60557672767397    3.24336984689296
H         3.24030050348687    5.11087503729124    7.65226215455626
H         1.67193968908776    5.39852617767554    6.90585920521317
H         2.54776435442022    3.89614437607521    6.58622335296281
H         2.02545029184978    4.45748511139405    1.63905676085681
H         3.68371806854121    4.13078023415713    1.14500499848981
H         2.96030759924633    3.19090245032612    2.44563020419342
H         3.25393229639321    6.51885215889873    1.32673497062697
H         3.11989640560202    7.33631062742791    2.86353297278677
H         5.76973613568079    5.13318564831897    1.26052186186469
H         5.27987230321971    6.36854334021255    0.09733775063173
H         6.84426640921014    6.48028576322465    0.90094849843211
H         6.28983767536754    8.77683933741661    1.59066343221887
H         4.70902059005434    8.65441592149739    0.81762383679388
H         4.83565360918063    9.16232992072426    2.50112596176556
H         7.63179776476716    6.80159744877828    5.49601944247348
H         7.16758659634517    8.50512047437252    5.58591640169818
H         6.45968375082379    7.34854220466329    6.70512425467863
H         3.88679813657382    8.37343080709751    4.18743109242839
H         4.67654189003722    8.87966063761972    5.66620573649428
H         3.81955724723715    7.16768884316954    6.93939600128114
H         2.46450939947274    7.57182440164793    5.89781850284570

