72
CSD_code = SIMZUM | q = 0 | S = 0 | Stoichiometry = C37H28N6Pt | MND = 4
Pt        3.48351330043048   -3.67648708411929    8.31594206835315
N         5.25550480587305   -2.77232370659099    8.68567634044858
N         3.98654558868544   -4.75394943879513    6.59707674225623
N         3.21174563158255   -4.79428636030368    5.56608568658463
N         1.23260697216292   -4.64756546235256    6.81989319179727
N         1.78714274402437   -4.60872096544635    7.98079575339458
N        -1.67946577799276   -3.84287224310604   -0.05325537129550
C         1.91182737364114   -4.54881489038779    5.67655010691193
C         3.06963222823275   -2.83439911839854   10.09915841291309
C         1.87618088203567   -2.61897790677678   10.78430814686056
H         0.92894543027942   -2.73834447919063   10.27457098109088
C         1.86902402385838   -2.24193154410867   12.11641319082594
H         0.92845461145466   -2.07276086210007   12.62174563032615
C         3.05982055227958   -2.09004887678930   12.81333769893056
H         3.04418921518456   -1.81579054782291   13.85834194512143
C         4.26365093774029   -2.27262509475366   12.16576605371271
H         5.18730456067883   -2.12916233170654   12.70799953941386
C         4.27559734555234   -2.62618816787209   10.81553515686016
C         5.48333145990859   -2.67664057950974   10.00246501496209
C         6.80094396044708   -2.56530774089638   10.49685333015735
H         6.96440160690371   -2.53884060298728   11.56206952117204
C         7.85614182094964   -2.54086025628362    9.63143532793769
H         8.87393782265995   -2.51374925359814    9.99290348542180
C         7.61640604402451   -2.50932281679188    8.23947913190573
C         6.26808692773088   -2.58534712874740    7.80438607770345
C         5.98242403517011   -2.43239515942319    6.43475785335561
H         4.94481891928837   -2.39966994300686    6.12696476553388
C         6.99678830753678   -2.29828349340607    5.52653280837668
H         6.77161124115353   -2.17896395341633    4.47759251881701
C         8.33364587914900   -2.30784026900053    5.94728213046908
H         9.12145330602575   -2.22271744803514    5.21418939384941
C         8.63727345341615   -2.39462467903944    7.27897895996119
H         9.66330062177533   -2.36162634560085    7.61596483289949
C         5.24637009620092   -5.30653871490645    6.47950513196092
C         5.92640204017505   -5.63050517600362    7.65850594758782
H         5.40208968612062   -5.54342529972459    8.60921807878245
C         7.23280615171531   -6.06020625265511    7.61046070175389
H         7.75455043665299   -6.29511493610046    8.52745355455265
C         7.89565410066745   -6.19616375832066    6.39272188347380
C         7.19751684001136   -5.92464062808218    5.22173378694700
H         7.69325727677425   -6.04248610382063    4.26874491553410
C         5.88822958867088   -5.49377597189799    5.25354419427106
H         5.35557757137473   -5.26069032108896    4.34459517151774
C         9.32857992228856   -6.62918730117863    6.36229478234056
H         9.43855711172485   -7.61604279614604    6.81093688997355
H         9.94424418187429   -5.93473740659983    6.93329139681096
H         9.70285094457739   -6.66825450797259    5.34265592182708
C         1.14187768519363   -4.41221663580300    4.44813695597714
C         1.77625882524480   -4.46478273114442    3.20437181202495
H         2.84227882790311   -4.62613796405045    3.16987259595729
C         1.05376770337374   -4.32017815052282    2.04166725157126
H         1.54339510267159   -4.36327774154716    1.07955663424490
C        -0.32720126930197   -4.11444103537460    2.10140918662133
C        -0.96872360797838   -4.05482618532698    3.34153906947370
H        -2.03598616315148   -3.89211236189536    3.38023586999519
C        -0.23801601765878   -4.19970879700186    4.49911436937162
H        -0.72210144089369   -4.15202654147753    5.46178774708869
C        -1.07196625992358   -3.96476943945046    0.91263323056301
C         1.06073239857636   -5.19373448511546    9.01727431716843
C        -0.32693129451576   -5.33584937100014    8.96650705935418
H        -0.85771185664505   -4.98168717839795    8.09659177423016
C        -1.00046932561935   -5.89326768779085   10.03224943982688
H        -2.07661249036345   -5.98234572594932    9.99388475034706
C        -0.31960547684225   -6.33843174266809   11.16202025522928
C         1.06626084391851   -6.22357442338848   11.19116525647894
H         1.61283811010852   -6.57901148531203   12.05241650598305
C         1.75230824713164   -5.66181382718261   10.13567188458739
H         2.83634580389264   -5.58746911889608   10.15330518130515
C        -1.07008873308348   -6.94590865167759   12.30621106952451
H        -1.41118225791099   -7.94711900218988   12.04145950255872
H        -1.94796458646964   -6.35020137247172   12.54880987982562
H        -0.44047454836281   -7.02130041953426   13.18894961632781

