65
CSD_code = SINBIA | q = 0 | S = 0 | Stoichiometry = C30H28Cl2O2P2Pd | MND = 4
Pd        3.91493971565919   -0.00006666050392   -0.00018387980508
Cl        5.15347449131133    1.90408067693451   -0.29643448089218
P         2.76642416117242    1.14925570376158    1.56788952495338
O         0.09348118238050   -0.98409913105244    3.86643979006135
C         1.16565943403467    0.54939277072473    2.28724895187767
C         1.38460662656008   -0.65840841100926    3.16695036836547
C        -0.21269151396816   -0.59863341483088    4.99240866401766
C         3.74384238074904    1.55777173713733    3.03950534776077
C         3.24638313395008    2.26603813140387    4.13044274905403
C         4.06149502124458    2.50792548048094    5.22136967838558
C         5.36538470774935    2.03805077015504    5.23761262332336
C         5.85833175500248    1.31379116050563    4.16431273221368
C         5.04850025575731    1.07144754602794    3.07010434349790
C         2.21473285922419    2.68028656534136    0.76288006235587
C         2.21767560183621    3.94576500022959    1.33177261517871
C         1.78858016986238    5.03038266425697    0.58497272129924
C         1.36129355624403    4.85749883626009   -0.72048045838797
C         1.37082307788383    3.59569842260692   -1.29692643413750
C         1.80111413834957    2.51136185727011   -0.55911339906861
H         0.49896256972882    0.29936016743091    1.45618065267458
H         0.71965456463921    1.36994443767435    2.86168731854082
H         1.63299598446256   -1.54305366670699    2.57952671018379
H         2.14038217396985   -0.47282417487692    3.93598613152028
H         2.22511286616294    2.62041025474047    4.13624014445623
H         3.67605368813203    3.06189210939329    6.06458355929345
H         5.99555738897001    2.23199077625210    6.09265832843775
H         6.87116381040132    0.93984225038486    4.18273653463176
H         5.42248528668122    0.50470825359286    2.21434248452954
H         2.57773046893563    4.09041908082882    2.33963492535371
H         1.79829039635901    6.01736854705911    1.02361182203619
H         1.03446909068614    5.70972727545548   -1.29739992795473
H         1.05557527551080    3.46565268590927   -2.32176992126715
H         1.84302987129552    1.51152960525580   -1.00524560091232
Cl        2.67685985382514   -1.90428336543960    0.29691834684385
P         5.06404434768350   -1.14929641553064   -1.56786126545000
C         6.66453162123260   -0.54929116608034   -2.28734335695553
C         4.08672824258766   -1.55785261285880   -3.03951241467196
C         5.61570478247069   -2.68031346191256   -0.76277307816686
C         6.44462286332034    0.65864824275722   -3.16695461070007
H         7.33146835467945   -0.29906649761359   -1.45653494215784
H         7.11073424886361   -1.36956225352947   -2.86205341624515
C         4.58433394688345   -2.26568394041629   -4.13066575803389
C         2.78199722826925   -1.07171403976366   -3.06999585070553
C         5.61330313852079   -3.94568166951830   -1.33191084475171
C         6.02855392777171   -2.51154391860009    0.55947674425156
O         7.73346555623802    0.98424756124798   -3.86756797126207
H         6.19641233583287    1.54292794060142   -2.57884205204294
H         5.68736662358551    0.47283214372609   -3.93454830142212
C         3.76931404387497   -2.50732136846058   -5.22171744283498
H         5.60569054323905   -2.61979459213292   -4.13663481578223
C         1.97222821347396   -1.31386010076219   -4.16429668384433
H         2.40794701131393   -0.50526626742943   -2.21405722607645
C         6.04207535651413   -5.03038986769249   -0.58504211796240
H         5.25402758286447   -4.09017082854401   -2.34007399872751
C         6.45853525908735   -3.59596004980583    1.29736172574471
H         5.98619481579750   -1.51180495004389    1.00575953211555
C         8.03932891599721    0.59689522402316   -4.99326325999773
C         2.46533467886063   -2.03767055420899   -5.23782933948377
H         4.15490940532068   -3.06081585468742   -6.06515945400939
H         0.95929367320984   -0.94020094685490   -4.18257380628168
C         6.46852889150102   -4.85766739697914    0.72071401539344
H         6.03280684366377   -6.01729876682202   -1.02384953038098
H         6.77296403627172   -3.46608422884924    2.32247242972906
H         1.83520683700851   -2.23150201623193   -6.09292022007641
H         6.79497262928982   -5.70996128966549    1.29773428235655

