59
CSD_code = SINBID | q = 0 | S = 0 | Stoichiometry = C29H22N6PtS | MND = 4
S         2.03575919423882   -3.95153431534182    5.39150564769575
Pt        1.17928783886099    0.16280997530677    4.00539538643642
N         2.18082304885037   -1.62330985630374    4.28599993241291
N         1.47498580132547    0.36059673843165    1.96294400799321
N         1.84598679766590    1.47504315995745    1.43574909976631
N         0.74235590640134    2.82135783754986    3.04640681807622
N         0.24326158552269    1.86392589378625    3.74039901430461
N         2.71772560622590    4.71000872700952    1.05686560605997
C         1.63147115896689    2.62287946220157    2.07029897213089
C         2.21598781222569    3.78009062907169    1.50247476339179
C         2.99620101570961   -2.42481250174806    3.53591447987416
C         3.80738632266112   -2.03600661550102    2.47160148065112
H         3.86197625132808   -0.99660484883291    2.19059981406668
C         4.54375974292968   -2.99442847371292    1.81109181342774
H         5.16743300046901   -2.70383518212619    0.97991829299274
C         4.50336313259963   -4.33072753840379    2.20273161693873
H         5.08339892832533   -5.06288664674238    1.66230395716790
C         3.75404171345807   -4.72779764753690    3.29285955936931
H         3.74541674931528   -5.75362436315181    3.62563739559538
C         3.01532983273960   -3.76692186939085    3.96089912161314
C         1.64784187260881   -2.25577650635989    5.30913047042044
C         0.76159841345572   -0.13675187986548    5.96844059707753
C         0.22652818045505    0.67053721665131    6.97123198267036
H         0.11072720908050    1.73352112788781    6.80689404235920
C        -0.15835181682831    0.14636453555489    8.19443168291436
H        -0.56209240016263    0.80349436048804    8.95178431639548
C        -0.04245452281467   -1.21277666470473    8.46138835216587
H        -0.36743978064881   -1.60843360868747    9.41222441269233
C         0.50743741347585   -2.04771373998049    7.51385171636837
H         0.63260336154934   -3.10497217856419    7.70455546266260
C         0.91865271392116   -1.50916955646194    6.29364734272455
C         1.40826282929162   -0.75195637287484    1.14653197694862
C         2.08892102069060   -0.85123060365941   -0.07011231940282
H         2.65288985074034   -0.00146200615257   -0.42397965213838
C         0.63551947870206   -3.01613444922506    0.88221307398697
H         0.05654499396600   -3.85353711946945    1.24476236328159
C         1.35353048309268   -3.13942715132289   -0.30294793582860
C         2.06166510272295   -2.03591630946663   -0.77235293147331
H         2.60656273731525   -2.11479312156495   -1.70203005056872
C         0.65162586734303   -1.83795708164493    1.59612147725788
H         0.06547270037328   -1.72966394448960    2.50885384756280
C         1.38112546106287   -4.43447510120906   -1.05248021923037
H         2.28884234224530   -4.98564351812167   -0.80281925461108
H         1.37976484724130   -4.26145743000376   -2.12645193344958
H         0.52680921918715   -5.05454888849617   -0.79243819612274
C        -0.97259815500359    2.13996595012446    4.36505265014203
C        -1.37257836156125    3.44243077288546    4.66883051220891
H        -0.71490759914581    4.26213914850496    4.42375363371408
C        -2.58116676989586    3.65737665660057    5.29561465239148
H        -2.87984331443801    4.66547539136973    5.54372505232582
C        -3.42526591043787    2.59760757149175    5.61927601083373
C        -3.03087747079414    1.30612240236200    5.28633983229057
H        -3.68026588109754    0.47369982123307    5.51436405279205
C        -1.82220187724504    1.07446232712126    4.66458392149087
H        -1.52152892865279    0.06713446978895    4.38625111106232
C        -4.72943857780441    2.85820954625059    6.30595086191101
H        -5.27536911732859    1.93337952592457    6.47199863043682
H        -5.34697831983922    3.52596216030931    5.70659335136370
H        -4.55991873466096    3.33999168323763    7.26811832242277

