43
CSD_code = SINCIB | q = 0 | S = 0 | Stoichiometry = C17H20B2FeO3 | MND = 9
Fe        0.75040977787677    0.40412996390711    5.41898269178077
B         3.03233048355180   -0.91097279360479    5.53124592101371
C         1.74628630487605   -1.77337543423489    5.70403788446988
C         0.90107763142384   -1.60450011667357    6.81615355858329
B         1.11614754299233   -0.43219360248472    7.82037917538004
C         2.23247096263730    0.61960285285254    7.48488691828576
C         3.12545398089915    0.40139470300354    6.38363744749501
C         2.43486860539091    1.76895718940655    8.28109142314947
C         3.44008576073880    2.66707030615364    8.02732964172914
C         4.29958694336348    2.46177569789191    6.94618859788283
C         4.14060593592517    1.35605504060421    6.15057205371339
C         4.22687505615611   -1.29054563301901    4.55523454162245
C         1.52897452166813   -2.89922910943134    4.70630536025768
C         2.20273159356467   -4.20094203396620    5.14719630303469
C        -0.17422294391844   -2.62139956827369    7.13882881127345
C         0.29215667158545   -3.53749439169304    8.27536888372617
C         0.26123596155796   -0.24987401185430    9.15016474803684
C        -0.65615874710200   -0.08601983185774    4.51354902223245
O        -1.58846951582925   -0.38518340577099    3.91475540454877
C         1.53478876286025    1.02598252795468    3.93722514074181
O         1.92949077924407    1.51779133630852    2.97896193815953
C        -0.25824891879524    1.60941069209037    6.25466019105097
O        -0.91724245935357    2.44303637386953    6.68755280256751
H         4.33127837281288   -0.55383304080151    3.75900833976892
H         5.17592782490563   -1.29263799142699    5.09107257608443
H         4.13034830662354   -2.25937841617055    4.07459980714004
H         0.46703009378608   -3.08206167454786    4.53229987529609
H         1.95474297088407   -2.59485226317837    3.74895388956715
H         1.69010665238921   -4.63649912775405    5.99929900670836
H         2.18644510519224   -4.92536744227056    4.33515174467166
H         3.23683887142034   -4.01706247302686    5.42831453152770
H        -0.43592602276582   -3.23551160551703    6.27848924199264
H        -1.08228366419110   -2.10556184011606    7.45602999908949
H         0.47135197114829   -2.96624238645742    9.18096616975906
H         1.21956000374955   -4.03907346489189    8.01076673994942
H        -0.46356366222137   -4.29239449680133    8.48351946625714
H        -0.09939140483144    0.77118873367940    9.26355599304597
H         0.87718533434841   -0.45223257358395   10.02744349345167
H        -0.60969559903013   -0.89498012594588    9.21816989343462
H         1.78647549993245    1.93680017911374    9.12854727183885
H         3.57712363384014    3.52887711408520    8.66503808331776
H         5.09419922235474    3.16768641384210    6.75037374240526
H         4.82131179833850    1.19985973059183    5.32609167395778

