81
CSD_code = SINCIE | q = 0 | S = 0 | Stoichiometry = C44H32N4Zr | MND = 6
Zr       24.97858895371814    1.09876863790934   12.69804074583111
N        26.22862804496961   -0.59394899788274   12.30625406360858
N        26.98423585653636    1.64349080083458   13.40271814016859
N        23.83616930096991    0.06899221801451   14.18643946719667
N        22.96028075445854    0.86620053867959   11.86841321092435
C        26.02377828498411   -1.82715929053200   11.81107485921866
C        27.20832581487008   -2.55494680142636   11.83396779864264
H        27.34476484809002   -3.57243235629090   11.52046163045156
C        28.19586681786783   -1.72312687959318   12.38726358550208
C        27.55611838059743   -0.49913511110331   12.66821633773022
C        27.99465539580481    0.78319042848638   13.14541615614032
C        29.32727156962380    1.19697486120283   13.31214696911303
H        30.13632483868183    0.52363768146886   13.08158527271640
C        29.56909933133831    2.48161215292185   13.74949114576958
H        30.58607830768556    2.82348027730181   13.87782902407571
C        28.51385799053032    3.34807810385966   14.01631616056440
H        28.71538671237269    4.35272341413559   14.34905129962677
C        27.20788922600875    2.90028600587936   13.82232899468592
C        25.98624210553000    3.70314811585991   14.03531826389128
C        26.02678413391219    4.97102895825615   14.61910962054527
H        26.96145921290081    5.40369417608440   14.94751022666144
C        24.85865942482091    5.68860690188981   14.79531043353769
H        24.89095074710977    6.66900944253167   15.24886339748162
C        23.64838902385627    5.14846841093274   14.39039652404770
H        22.73657316841054    5.71376759663333   14.52869699604500
C        23.60965723248096    3.88523300690710   13.81461028324871
H        22.64211665705553    3.48256366736450   13.51129812948511
C        24.76138269924287    3.11591922096484   13.61882256536878
C        29.57095602046362   -2.12290334704693   12.66211201951282
C        30.30672319125689   -2.81613362679428   11.70284689068686
H        29.85576004299430   -3.02402772377068   10.74357162622610
C        31.60243052004784   -3.21950788226766   11.96510981169333
H        32.16380847281314   -3.75013934247122   11.20936196014115
C        32.18304626210600   -2.94552903216511   13.19237289411892
H        33.19563903623866   -3.26114273701151   13.39678233211470
C        31.45592385027622   -2.27057334216401   14.15936693617648
H        31.89986014503190   -2.06495275012254   15.12311217431299
C        30.16100747147221   -1.86383826406715   13.89904630232948
H        29.58863141916434   -1.35342797779038   14.66122745518241
C        24.65162891304544   -2.20975477725448   11.35342932885349
H        23.99418379447643   -2.36045776022999   12.21614373603845
H        24.68159596226290   -3.13134412976215   10.77645826742780
H        24.23195620520699   -1.40734441275783   10.73294949185589
C        24.11106732358098   -0.45888600030038   15.39216470551612
C        22.97933704223900   -1.07538523439538   15.91398931648236
H        22.90401704653613   -1.59702146352720   16.84908599478113
C        21.95227513512518   -0.92760862360268   14.96708371591410
C        22.51492551498598   -0.20177091033472   13.89788650903403
C        22.00370363478250    0.35852523638087   12.67757099869522
C        20.65121987627207    0.45013212199537   12.30705988594641
H        19.88349767423049    0.07107405808337   12.96126382838276
C        20.33485971331323    1.05445055513095   11.10914459386467
H        19.30085378476307    1.14241302436870   10.80775947856533
C        21.33580943066163    1.56402989232591   10.28830208518968
H        21.07588876808061    2.04311044299573    9.35899689864084
C        22.66348278853827    1.46390241646176   10.70207583228901
C        23.83307365183007    1.97626830167222    9.95912854307562
C        23.72210251752834    2.48155555023102    8.66202295665356
H        22.76967575774908    2.50096081185475    8.15119714164512
C        24.84247641797054    2.95690753158610    8.00692841495291
H        24.75562407810883    3.34663879843005    7.00267153856351
C        26.07517113973671    2.93125621174783    8.63942999252424
H        26.94931752865809    3.30594801969015    8.12407922021693
C        26.18460628324718    2.42207980751155    9.92702231552983
H        27.16875195556206    2.40782678198345   10.39768482484606
C        25.08324854370250    1.92541099617180   10.63202371906648
C        20.61453774071014   -1.49519091597001   15.08763045096870
C        19.90582977241183   -1.37576370518017   16.28163436012167
H        20.34770266032728   -0.83059152088253   17.10286560745857
C        18.64723690153994   -1.93177606521667   16.41231084281466
H        18.10627015700602   -1.82559326844585   17.34188138132570
C        18.07773030835054   -2.62379901192742   15.35639511329143
H        17.09405657183135   -3.05806557968233   15.45908737332626
C        18.77922855204776   -2.76243222722802   14.16988349558104
H        18.34465133513620   -3.31203872739424   13.34694993259106
C        20.03700206856596   -2.20558436004816   14.03554245495136
H        20.59071604282728   -2.33085834304789   13.11532033909003
C        25.49390252211099   -0.32562519798111   15.94782164319458
H        26.18329303022296   -0.98148130455051   15.40534317502631
H        25.51300479653448   -0.59852650532105   17.00063932201833
H        25.83936579188514    0.71046033079189   15.83587946891680

