104
CSD_code = SINFON | q = 0 | S = 0 | Stoichiometry = C55H44NNiP3 | MND = 5
Ni       -1.41553552637613    9.01912589791942    3.73238745686910
P         0.46816690729923    8.18381983325787    2.87026894959450
P        -2.72698474934033   10.31724209307916    2.35171719318542
P        -2.53530487531057    7.50162997604912    4.79002811628734
N        -0.57626330049069   10.75347727934824    3.73905828627008
C         1.43526112623341    9.72804850421741    2.91531651419708
C         2.74904661129038    9.85553028759380    2.48876165118811
H         3.24465569550011    9.00852456020386    2.03485743785142
C         3.41841828502452   11.05307359324064    2.65518852308014
H         4.44123461835417   11.15364349207774    2.32382667050746
C         2.77552103887817   12.12522511971477    3.26210858611349
H         3.30612620002119   13.05537884631502    3.40734642963545
C         1.46589611419300   12.02007146755847    3.67819874056845
H         0.95906563500516   12.85888479291053    4.13442543979696
C         0.76561920986232   10.82256278817604    3.49295858609217
C        -1.19330510319721   10.82923660239899    4.89457239354498
H        -0.63335742335446   10.83777488446489    5.83851448884944
C        -2.56972565729430   11.30248117240070    4.93787537509941
C        -3.08720619233550   11.85990401543497    6.10792968949411
H        -2.46358026370060   11.90438055518190    6.99118558200498
C        -4.37721848501705   12.35164078379021    6.14365425463193
H        -4.76361300396258   12.78252531063634    7.05633447144721
C        -5.17360716622371   12.29197402800014    5.01058908839020
H        -6.18277382071994   12.67638418893803    5.03623832451037
C        -4.68261667922486   11.72441183971327    3.84621257129382
H        -5.32033678470464   11.65848147530401    2.97665359492480
C        -3.38916282152656   11.22892603445416    3.79066343123212
C         0.78757074812914    7.59825248635724    1.17466521080597
C        -0.14809107309555    7.97546741450061    0.21824768145352
H        -1.00983915202872    8.54967668486870    0.54223748261202
C         0.01905123688428    7.62178694437883   -1.10644565587272
H        -0.71127120520697    7.91823266606267   -1.84600403910798
C         1.12614116960054    6.87840218057514   -1.48324572237394
H         1.26237575269741    6.59582158164822   -2.51716048251212
C         2.05813334502016    6.49311936474785   -0.53328628853553
H         2.91951587688484    5.91109974517179   -0.82908854364897
C         1.89436813771257    6.85010854061494    0.79341291081190
H         2.62051133919794    6.53856020455059    1.53129952129684
C         1.48699445680419    7.03944106922997    3.85715316008999
C         2.38508207433202    7.48769408654673    4.82014000764937
H         2.58045541681622    8.54713904640017    4.92019881872710
C         3.02765545340845    6.58404161530633    5.64746711913791
H         3.73071184348760    6.94018872568381    6.38729117495871
C         2.76949628687021    5.22854739463781    5.53345515570132
H         3.26824915334469    4.52595155326895    6.18505239206319
C         1.86650456284627    4.77608003014561    4.58411064776657
H         1.65749605150630    3.71965035314655    4.49488173936305
C         1.22588298101488    5.67459641476966    3.75394718977416
H         0.51640660734466    5.32606625331663    3.01593703762680
C        -1.96986376747744   11.64150293419661    1.35335705390734
C        -1.61294507868966   12.86868405856227    1.89893212175863
H        -1.85122027603805   13.08666667739071    2.93034877864776
C        -0.95693063637345   13.80934514473233    1.12615561352054
H        -0.68159818793264   14.76127559333329    1.55778691489260
C        -0.65046488108946   13.53573030118228   -0.19605482291597
H        -0.13306685040175   14.27046793454809   -0.79567274726778
C        -1.01128649076205   12.31775937820493   -0.74882453527747
H        -0.77724403003817   12.10166029976514   -1.78149589111395
C        -1.66458388829968   11.37554670049248    0.02209126722148
H        -1.95119403936917   10.42643529710287   -0.41059426388367
C        -4.27342079221583   10.01579728935092    1.41692661641103
C        -4.90955709650305    8.80483610408520    1.66733286435798
H        -4.45684139892808    8.11549338529590    2.36904962864345
C        -6.10144154710030    8.48983109034579    1.04303915467969
H        -6.59044598908664    7.54990885395968    1.25508635827713
C        -6.66222871244556    9.38178567290550    0.14397726946673
H        -7.59176681643293    9.14072294659275   -0.35119938406670
C        -6.02814178039136   10.58511014119256   -0.12297854578298
H        -6.46605007859563   11.28075461429221   -0.82495350535605
C        -4.84047209514628   10.90528250353876    0.50959760358687
H        -4.35494445944316   11.84928066969507    0.30425560394886
C        -2.30182492555799    5.89753150240928    3.94528699686496
C        -2.17789405134512    4.67711311832898    4.59649675464925
H        -2.24062787704116    4.62814882971186    5.67419043744392
C        -1.96120079617102    3.52381840125021    3.86204630829974
H        -1.85944651299971    2.57624824588188    4.37173073714610
C        -1.86864749325376    3.57874447378677    2.48080082145731
H        -1.69378362678157    2.67476018899361    1.91539989490076
C        -1.99086919827318    4.79455897345243    1.82578964974283
H        -1.90820333594705    4.84422962802206    0.74951810323603
C        -2.20123244684875    5.94781409355570    2.55722036512333
H        -2.27447947972504    6.91164080837680    2.06290707384882
C        -1.97098585694212    7.10245765589253    6.47648186030349
C        -0.64413453963904    7.39838766957303    6.76794534579953
H        -0.03660332980759    7.87839449865727    6.00782797721630
C        -0.11015086546298    7.08835905997206    8.00360894441041
H         0.92526730482053    7.31190981470768    8.21690802347198
C        -0.90932274593393    6.49420013195003    8.96690210974386
H        -0.49932909598072    6.25355266809645    9.93704954251676
C        -2.23822218255891    6.21483899383245    8.68994808584898
H        -2.86171350624870    5.75858635817194    9.44570697493766
C        -2.77155498779773    6.51312446529940    7.44858769920473
H        -3.80845492884793    6.29316308039297    7.23400992757976
C        -4.34433910333900    7.54606466357682    5.01998395809528
C        -4.85628372787170    8.63092570613041    5.72675759668581
H        -4.17196292019269    9.34982700872468    6.15717846751500
C        -6.21974886242963    8.79006100384420    5.87391146536397
H        -6.60668305174771    9.63737197004633    6.42109937384590
C        -7.08763699966555    7.86753879672914    5.31112546676630
H        -8.15508760360594    7.99318564905384    5.41885308751401
C        -6.58506643846714    6.78536817358883    4.60876622383531
H        -7.26108265706399    6.06377887125457    4.17225519578738
C        -5.21886434570330    6.62336817586288    4.45816334531865
H        -4.83104157116719    5.78136595173637    3.90124066744567

