44
CSD_code = SINHEF | q = 0 | S = 0 | Stoichiometry = C21H19NO2Ru | MND = 8
Ru        3.72268467667930    2.94642932814207    3.66976146303944
C         5.27373700960741    1.95854718414182    3.87853068084166
O         6.20439097529807    1.29106332627252    3.95102716291266
C         3.38790228622186    2.99785780497568    5.49031627530448
O         3.10218269237214    3.00129440325965    6.60170243662876
C         4.79239298813642    4.64914603988136    3.78739158833006
C         5.33273848312829    5.72639817946830    3.67404201170497
C         5.96897476533737    6.98514915508149    3.55719599598722
C         5.89928565815424    7.91197693508751    4.60216323302816
H         5.36236521043348    7.64995707936598    5.50172990877467
C         6.50949890087420    9.14091951977498    4.48520119996396
H         6.45827220390964    9.85966260920380    5.29035748219150
C         7.20278890846936    9.46677172586261    3.31625074797244
C         7.27789766334176    8.54482692223318    2.26910059414047
H         7.81866672812072    8.80372322252255    1.37005229305539
C         6.66544623590632    7.31737931254966    2.39085166526308
H         6.72345975720105    6.59783044818287    1.58690050028308
C         7.82609403413193   10.72648239764353    3.19197370796981
N         8.32949058286313   11.75244979410830    3.08867214795820
C         3.35582955994902    2.82532854286247    1.48756055334407
C         2.84845315038475    1.62163920318896    2.09667291292507
C         1.82052998432491    1.98617173037810    3.01242500015340
C         1.66510958344690    3.42198628310439    2.95827472659814
C         2.57780472092653    3.92334890556692    1.98322026164906
C         4.22715542364376    2.87727898993845    0.26374609193175
H         4.94136837926584    2.05636240090372    0.25040332097296
H         4.78308205819820    3.81164299625904    0.22033660111945
H         3.60647702830219    2.80608202746425   -0.63271479272610
C         3.16984627679903    0.22592285256360    1.65033372636794
H         3.01151041620050   -0.49528822813700    2.44969130488479
H         4.20162422694836    0.14202346027620    1.31408093819156
H         2.51796252701448   -0.04279789617938    0.81574821581851
C         0.86147638195242    1.04099821074156    3.67421534876071
H         0.02029729461716    0.85032218344301    3.00345222147554
H         0.46782767369300    1.45567803885094    4.60027993759869
H         1.33574838706431    0.08858933700884    3.90223830923746
C         0.50212378341758    4.18316059566809    3.53035384977954
H         0.76369246023334    5.22360576666096    3.71297568382164
H         0.16547568281848    3.74758775084804    4.46919898741367
H        -0.33185903655416    4.15858570597503    2.82482233866702
C         2.58318004144951    5.31224794966592    1.42078472507658
H         1.91685678542009    5.35015205714986    0.55591151234347
H         3.58037894293412    5.60499447671876    1.10031065478648
H         2.23797850734398    6.03741127129486    2.15405647447392

