36
CSD_code = SINHIG | q = 0 | S = 0 | Stoichiometry = C15H16N2O2Pd | MND = 4
Pd        4.51278115439673    1.10840733486129    0.79294997458931
O         2.70094485492304    0.37649345395438    1.27494446553953
O         5.37448495154803    0.11798246385595    2.50682680022480
C         2.44622536545921   -0.36717582007226    2.26359413148543
C         3.32846300721480   -0.84386074472417    3.23621341409015
C         4.70167825348730   -0.58368313909732    3.30499343388824
C         0.99537981076894   -0.79475264627514    2.40560242711535
C         5.45296307884966   -1.21921444191860    4.46283381213883
N         6.23795511378414    1.88135147356876    0.21977220966774
C         7.48381994385257    1.86844147406815    0.63052059012358
N         8.26185959406427    2.60399436517284   -0.18890096125594
C         7.45450545814868    3.10844384746120   -1.17301231716874
C         6.18663823225279    2.65483901924314   -0.91582134142122
C         9.67455613831537    2.82645464940315   -0.06807490169699
C         3.85986437656340    2.08296618092830   -0.83072278080992
C         4.87364314996798    2.78410818688304   -1.52150288496869
C         4.59844957292389    3.51593175265381   -2.67137644027828
C         3.30324382536460    3.56019048341282   -3.15407651348367
C         2.29451503742381    2.87879290386416   -2.49185202170352
C         2.56950598234424    2.14864349168111   -1.34280345264499
H         2.91009977698081   -1.47355329726594    4.00761662192364
H         7.84742208448773    1.34854929051542    1.49684306680757
H         7.83997978224119    3.73136551627324   -1.95288349207244
H         5.39250557041300    4.04397491204914   -3.18061028056225
H         3.07899321428628    4.12579480385694   -4.04718711460245
H         1.28409063056194    2.91746042238965   -2.87523193330548
H         1.76754897913596    1.62298377044060   -0.83909668840756
H         0.40077601110702   -0.32805260944669    1.62429214231893
H         0.91765366210142   -1.87644239344972    2.31807975605455
H         0.60933984683815   -0.50130917715199    3.37933763006253
H         5.38590954755873   -2.30307937006450    4.39929767793141
H         5.01849377812390   -0.90560896531278    5.40916764890107
H         6.49819873831684   -0.92247059463429    4.42960809885189
H        10.19601691690047    2.45050771725577   -0.95067459817401
H        10.04787128724153    2.30668721321218    0.81209336933941
H         9.88452327204708    3.89313847240769    0.03314045150270

