29
CSD_code = SINJAA | q = 0 | S = 0 | Stoichiometry = C8H12NiS8 | MND = 4
Ni       -0.00000002209056    0.00013964052473    0.00000004825704
S         0.72171613498365   -0.00001024149386    2.02700497381139
S        -2.04221699415679    0.00003992521529    0.67626924349376
S        -0.58391850100675   -0.00004130668818    4.73412074993080
S        -3.37569040123023    0.00003392633513    3.36962976273163
C        -1.93289988072172    0.00002001724836    2.38129480496774
C        -0.69053879804106   -0.00000887390015    2.98834109140142
C         1.21023225039959   -0.00009543000582    4.98785728763082
C        -4.67821025277476    0.00007214446609    2.10973498265890
H         1.36235395522795   -0.00012034307114    6.06221323008517
H         1.63832664223779   -0.89195181322578    4.54034582771328
H        -5.61932190649824    0.00007720460497    2.64966386106464
H        -4.58790983372971    0.89193425967003    1.49702013105264
S        -0.72171609888669   -0.00001024147897   -2.02700492512059
S         2.04221693542472    0.00003992521524   -0.67626924279508
H         1.63837587755012    0.89175348663004    4.54037881469188
H        -4.58793517641845   -0.89177277605414    1.49699131086044
C         0.69053880861565   -0.00000887389184   -2.98834109354976
C         1.93289987771348    0.00002001724685   -2.38129481575387
S         0.58391849795957   -0.00004130669155   -4.73412076452379
S         3.37569041426672    0.00003392633300   -3.36962976939979
C        -1.21023225424437   -0.00009543000730   -4.98785730037409
C         4.67821026327579    0.00007214446632   -2.10973498558325
H        -1.36235395688785   -0.00012034307445   -6.06221324289872
H        -1.63837587982796    0.89175348714361   -4.54037882634939
H        -1.63832664451773   -0.89195181373952   -4.54034583936699
H         5.61932191523285    0.00007720460575   -2.64966386613357
H         4.58793518541761   -0.89177277636295   -1.49699131415466
H         4.58790984272739    0.89193425998018   -1.49702013434800

