50
CSD_code = SINLOQ | q = 1 | S = 0 | Stoichiometry = C20H18N4O7Re(1+) | MND = 6
Re        2.50794186858077   -0.39973629996394    1.96745253759629
O         3.28828593152373    2.53972718292834    2.55790840665674
O         3.32200720788870   -0.11874423356858   -1.00894907781309
O        -0.44707281297069    0.35055422427059    1.36624664847992
O         1.15957431283877   -7.34785907380439    0.97950731502794
O         0.64048186833972   -7.08681319879487    3.15113117357321
O         0.47997885679848   -3.37386867911084    8.07531797782064
O         0.64743181524142   -1.24123802094096    8.76720439103396
N         1.99173615502989   -2.48887713536595    1.87756356596199
N         1.94549078597105   -0.89694794539555    3.98602995620489
N         5.20512107744726   -0.71185823683266    3.55096868021993
N         5.22377758447603   -1.96499554560009    1.81478119169497
C         2.99882130414028    1.46407935269915    2.30433693818464
C         3.02024770743014   -0.18876063531041    0.09016063412026
C         0.63846626223843    0.09293964414647    1.57387261698682
C         4.50474538152389   -1.07360601563156    2.48385046583766
C         6.52927450117525   -1.31777647620953    3.62879959709703
C         6.54214980129634   -2.21704120023577    2.38422004474147
C         2.01135234537689   -3.23373431233236    0.77145869226801
C         1.70760379660562   -4.58062939928378    0.76226960034569
C         1.36321026461694   -5.19602778256571    1.96326467079464
C         1.32762589717152   -4.42624251398946    3.11673795296939
C         1.64321795702528   -3.07163874771704    3.04250699323314
C         1.60145897508543   -2.18166606271484    4.21216835433762
C         1.20994141323437   -2.61282104873465    5.47506277351722
C         1.15792954238150   -1.70795757384317    6.52644802130141
C         1.50379474795078   -0.38270420050349    6.28097393853011
C         1.89074681850426   -0.03322435601900    5.00080155406025
C         1.04621114622367   -6.66212030702954    1.95985640267198
C         0.30626767745732   -8.47008157130543    3.24412074703191
C         0.72295889013952   -2.21323027339339    7.86977555660956
C         0.22824520056700   -1.62088467840988   10.07606494187399
H         4.92601713399434    0.00690642836412    4.19684533626837
H         4.95975088105446   -2.35923117332631    0.92777130002136
H         7.30344165183752   -0.54751077361809    3.59934129709811
H         6.63575929589575   -1.88342330027856    4.55797662789914
H         6.65503428618449   -3.27587767426949    2.63069324531734
H         7.32373217242104   -1.94007873376071    1.67294971657637
H         2.27279564745509   -2.72644636358899   -0.14841616130307
H         1.73084887750390   -5.15788819232612   -0.14831517779202
H         1.05567785777724   -4.88935364613201    4.04973504230469
H         0.93273319342614   -3.63534236259955    5.67396162015636
H         1.46709048994955    0.35285176236175    7.06697721063101
H         2.15836272456213    0.99135349559019    4.77565501913415
H        -0.51956480370095   -8.70333926556242    2.57027693875157
H         1.16639734953803   -9.08438566282877    2.97289005038511
H         0.01917501777220   -8.64304844096108    4.27751978089740
H         0.91471642828880   -2.36005308218002   10.49226977449605
H         0.23414134725106   -0.71192312628355   10.67087946608651
H        -0.77383383251865   -2.05122476803218   10.04007565010822

