92
CSD_code = SINQAK | q = 0 | S = 0 | Stoichiometry = C37H48CuN5S | MND = 2
Cu        3.73218026824479    6.51041147819626    4.65317175767655
S         5.89758816189241    6.39432388613730    4.93762643330083
N         0.90851789744702    5.81024599493715    5.16198955412404
N         1.32667723571001    6.05678821226819    3.07560817200011
N         4.05099909240649   12.81974791238120    2.26975052054719
N         3.88602018424895   12.18457930792803    1.28554628384803
N         3.51410067345146   11.67983663820387    0.34950832742883
C         1.88768561696044    6.15088329563493    4.29834157986664
C        -0.24699084789244    5.50960143090692    4.48981482717390
H        -1.14056289539428    5.21349322940861    4.99930977717542
C         0.01830436830077    5.66507238907049    3.17100523387402
H        -0.60046816112910    5.53302186769852    2.30771770360595
C         1.07180993424809    5.74741909088026    6.57323839578211
C         0.65678297117987    6.83284881446209    7.34886710355139
C         0.83928924253794    6.76069044451069    8.72251317410685
H         0.54290643874608    7.58819631021054    9.34716116888743
C         1.40549547295535    5.64078315818604    9.30202161817468
H         1.54082093831135    5.60098997037914   10.37261828887778
C         1.80622777884570    4.57718823261304    8.51782666500973
H         2.25345658967664    3.71305005099933    8.98328918338949
C         1.65053524567652    4.60936640913473    7.13793173982714
C         0.09297670575902    8.07683917957866    6.70221130319735
H        -0.24928409136852    7.83091356688905    5.69175372462825
C         1.21002757642356    9.11733279581098    6.58118139614118
H         2.04245202356497    8.71201878344590    6.00809731887628
H         1.57318916838566    9.39706782264244    7.56794553063244
H         0.84183501516473   10.00857684365036    6.07788559605349
C        -1.10314864175980    8.64716205546619    7.46501636334938
H        -1.56885490048809    9.43728829615753    6.88010212389250
H        -0.80009595309607    9.07195165400132    8.41808881291562
H        -1.84435804181524    7.87265138744061    7.65074275362969
C         2.10880926350385    3.44397951712231    6.29432234409065
H         1.87558031840887    3.64366207138599    5.24402902563608
C         3.62507472853691    3.27302110047135    6.40508406791237
H         3.95493596403366    2.45094673764907    5.77472453445690
H         3.92138304375059    3.06296371696277    7.42913139963334
H         4.13447259350043    4.17868586167198    6.07669014009484
C         1.37839770616776    2.16089312495046    6.69868152302916
H         0.30014837600883    2.29626362352049    6.63427868884923
H         1.62736242977462    1.87300184577055    7.71646391959960
H         1.66441061229540    1.34781271438087    6.03546460375054
C         2.02467211071045    6.29842493162555    1.85848317807664
C         2.10628562065524    7.60530188237121    1.37485192170283
C         2.81758696239570    7.82693744277430    0.20373196373695
H         2.91644737899729    8.82948781287418   -0.18015735557821
C         3.41525134002660    6.77525237749100   -0.46437482203714
H         3.96848072260376    6.96257145968522   -1.37243688379784
C         3.32197898802523    5.48825322064803    0.02954410271615
H         3.80883242022883    4.68137906720296   -0.49500197299611
C         2.62601929548905    5.22376815206521    1.20136104953626
C         1.50728639096482    8.75626186311736    2.14582622978994
H         0.76450828885103    8.36897172850382    2.85245190572025
C         2.62620396328139    9.42745590255309    2.94519715994274
H         3.40683590580098    9.77645392038787    2.27589070281684
H         3.08162522079928    8.71749407876556    3.63890912302192
H         2.24010879070513   10.27056366015649    3.51157499209137
C         0.80449045877496    9.76761020374980    1.23978675573959
H         1.52063880180997   10.32028490508907    0.63819829924226
H         0.25341488552840   10.48320246936510    1.84662550571171
H         0.10337478939090    9.26563738808798    0.57603424253496
C         2.57797486094811    3.82473206655683    1.76851884509344
H         1.85961790574408    3.79469641118300    2.59454611389901
C         3.95498183699158    3.45731631272376    2.32805084523092
H         4.69907530329284    3.44427052218599    1.53606057909251
H         3.92288320576810    2.47312583762390    2.78981867045495
H         4.27063644772457    4.18256775346521    3.07713057358462
C         2.11876689233324    2.80446991028617    0.72503809657231
H         1.17040540868050    3.10657439496867    0.28460931767720
H         1.98806490682934    1.83112106859234    1.19268164966643
H         2.84994016177025    2.69986324263621   -0.07152120925325
C         6.35510567796605    7.91585744161374    5.87136303748735
H         5.82671874402287    7.88843406530210    6.82638706227908
H         7.42686968559058    7.81809193390700    6.05196040702701
C         6.05140217315209    9.17085988652105    5.12574396452736
C         5.03625822848405   10.00971325007558    5.56810929014460
H         4.47152689639014    9.72435071849543    6.44659062805281
C         4.73450592325972   11.20975791579764    4.94192876860070
C         5.48000614612734   11.57716312622236    3.82217605958394
C         6.46716131608900   10.72281543873492    3.35073650685742
H         7.03098127008164   11.00699193016504    2.47116825921173
C         6.77563929160667    9.52910827557426    3.98247134414760
C         5.22417749530881   12.87923374524847    3.10383170619735
H         5.03792857539388   13.68790194300286    3.81394001318025
H         6.09595621583824   13.14496271002285    2.49221012620902
C         3.65322335308563   12.09807758024411    5.48289548330583
H         2.98854365940080   12.43355293001062    4.68857400458127
H         4.08809481693646   12.98245125047382    5.95097152954697
H         3.06849532317528   11.57097441699320    6.23254706722340
C         7.86940770759128    8.65533350161470    3.45862186003704
H         7.51618577124909    7.62872039331629    3.37373112218546
H         8.71522259669559    8.65423299052424    4.14699028983607
H         8.21290976430701    9.00049374626178    2.48646921126841

