71
CSD_code = SINTUG | q = 0 | S = 0 | Stoichiometry = C26H39ClO2P2Pd | MND = 4
Pd       19.58009334119707    5.39741017145418    1.43771613122658
Cl       17.29112456118583    5.39549350175676    1.43867642545570
P        19.90982265041664    5.78439995121722    3.61142005061963
O        21.52609210138646    5.96412683560702    3.75398036688568
C        21.53363998746575    5.39458638370895    1.43819300520326
C        22.23951234057665    5.68159657252618    2.59683635073582
C        23.62622991136792    5.68448256207054    2.61044843984855
H        24.15577584853026    5.90729864271713    3.52334954976659
C        24.30649718134502    5.39481919331161    1.43802899939823
H        25.38543514080912    5.39494838422342    1.43797196072586
C        19.56094731024762    4.41323438591251    4.79639468974366
H        19.96101806975482    4.68376122195820    5.77900146487987
C        18.04344179511833    4.14527911898495    4.80755017662605
H        17.63523634863982    4.16356733493695    5.81751469371719
H        17.52405883461623    4.90639105209715    4.21765128461730
C        17.85223588950439    2.77767499876611    4.13833042327007
H        16.95563869729787    2.75666938806559    3.52219247176339
H        17.77866097541369    1.99019359377612    4.89109087977010
C        19.12197177206327    2.58865890501062    3.31352369777928
H        19.05949622245565    3.21024849950864    2.39795858372822
H        19.29193864978327    1.55130729714837    3.02691994893991
C        20.20504604345403    3.13762041029173    4.23678689056285
H        21.14446783893755    3.33943169660101    3.71241795643486
H        20.40712885090542    2.42812301800345    5.04270007086304
C        19.30381687539810    7.32055422653429    4.42337684106945
H        18.26580416991846    7.14378296408259    4.71488406363848
C        20.15820569768178    7.75229329534890    5.62827169161550
H        19.51181516495899    8.02545725827288    6.46362311341837
H        20.82763466446017    6.95810238015816    5.95971023549594
C        19.40064424886217    8.46010456281284    3.38866593516030
H        20.10445663739709    8.17385926117845    2.59040139183627
H        18.43586446658667    8.67604586155338    2.93019373523570
C        20.93604210959135    8.97388706160477    5.13943943042851
H        21.23317082017184    9.62911294158188    5.95706837258267
H        21.83218058511136    8.65084104383248    4.60759744826611
C        19.97441826883000    9.64298739441202    4.16232545674065
H        20.46741912191208   10.36623472876250    3.51442395731615
H        19.18064332737004   10.15240772263255    4.71152405854589
P        19.90966747142858    5.00448378376262   -0.73460197654444
O        21.52587194934227    4.82480125650446   -0.87750033503319
C        22.23944393673401    5.10757441940202    0.27949978932657
C        23.62616069281502    5.10494236870006    0.26569977390323
H        24.15564552206931    4.88224270825863   -0.64727649625434
C        19.56038209369862    6.37508811267260   -1.92003809855209
H        19.95856516059619    6.10385469528743   -2.90321418727407
C        18.04308199160571    6.64436347981394   -1.92879729432518
H        17.63315196189411    6.62586537022115   -2.93805377279005
H        17.52402711584454    5.88403177962195   -1.33758474877504
C        17.85428395050022    8.01248430617647   -1.25994207773695
H        16.95873919546645    8.03457836309176   -0.64231433262189
H        17.78010405303928    8.79968187666305   -2.01294874423148
C        19.12548792321941    8.20069434047473   -0.43717559357910
H        19.06412528394930    7.57941200264590    0.47880153036170
H        19.29688672005753    9.23810452534985   -0.15153956872513
C        20.20661649431829    7.65029496726132   -1.36187421047008
H        21.14642016040857    7.44765740791367   -0.83853293220818
H        20.40860098331575    8.35921497075751   -2.16830086139122
C        19.30391511274565    3.46749979356057   -1.54511045620301
H        18.26541102466360    3.64324910020142   -1.83549393050052
C        20.15721268579070    3.03540626756691   -2.75069143929357
H        19.51005703934560    2.76099711762858   -3.58505491777214
H        20.82538875817119    3.83001508003391   -3.08360875062625
C        19.40304445573308    2.32879336364206   -0.50969789624505
H        20.10726123900828    2.61652124508009    0.28772679995120
H        18.43890233539684    2.11207899382077   -0.05020274295381
C        20.93716869822340    1.81501010592765   -2.26221202127669
H        21.23354323620906    1.15932202148723   -3.07984324957008
H        21.83382904382143    2.13933521766305   -1.73194761038840
C        19.97737518422526    1.14598279426661   -1.28317361011126
H        20.47221512482032    0.42404265890384   -0.63521900218120
H        19.18358688081346    0.63488168321629   -1.83083727981457

