67
CSD_code = SINVAO | q = 0 | S = 0 | Stoichiometry = C22H40O2P2Pd | MND = 4
Pd        0.89058312716844   10.26346517562430    6.04983026975072
H         0.38766333141372    9.40176705958843    4.82867216187064
P         1.70568656009016    8.65183351489102    7.36235406445255
P         0.32225208664848   12.30722458556400    5.35434989528425
O         2.36494165919503    9.39349564288118    8.65617140347259
O         0.68814291465494   13.33152580834962    6.56900889437241
C         1.52741717648316   11.36414744565318    7.61503291852362
C         2.17212767437592   10.77343061349750    8.69546136982899
C         2.61704475369701   11.51463283900738    9.77848620041091
H         3.11343654662879   11.02759553197611   10.60407773220617
C         2.41030774289389   12.88546104665563    9.77597349439027
H         2.75226057984277   13.47485316004256   10.61316880391479
C         1.77216159634917   13.51267021848080    8.71708158212965
H         1.61272247234731   14.58029402602059    8.71609169367580
C         1.33906612226658   12.74083615007113    7.65079684134524
C         0.39359339344830    7.60402887730876    8.19741215707131
C         0.93636307141598    6.74559184003979    9.33193792571764
H         0.11472660808167    6.35976705091364    9.93480762325874
H         1.58915344598897    7.33295638097483    9.97497130177034
H         1.49687011315908    5.89775332368552    8.94426806422070
C        -0.34391627263638    6.77415223544221    7.15256385042438
H        -1.26430229517728    6.37272451554159    7.57523058011437
H         0.25815326159990    5.94109331957098    6.80139097682996
H        -0.59846016417588    7.40525853233693    6.29800439175756
C        -0.56521014429938    8.67715724465416    8.72870625791164
H        -1.48109215398035    8.22462082502257    9.10697862646895
H        -0.82997976737828    9.36855479103492    7.91119371333669
H        -0.10747042887193    9.24913743093883    9.53613476109397
C         3.21019830150838    7.74262428319304    6.71647071012641
C         2.78861571777034    6.64831306393859    5.74374262386502
H         3.64320585296556    6.32508812059551    5.15041091503071
H         2.02149291216040    7.02788365268965    5.06793073826325
H         2.39845255233233    5.78110097284785    6.27170001923387
C         4.11633240734572    7.19780395697491    7.81391386585350
H         5.04962559357994    6.84358867977430    7.37727274598502
H         3.64833341023991    6.36683270011878    8.33480708491288
H         4.34949982146952    7.97256123532893    8.54040132194344
C         3.91596160419152    8.86370154153014    5.94181205881483
H         4.81390002941641    8.49317885040938    5.44860735335606
H         4.20458629997108    9.67329624293685    6.61685555351502
H         3.23281277315577    9.26172730312819    5.17363345149101
C        -1.51191472031506   12.64948228322167    5.19204933127595
C        -2.07152155351078   11.77429170934182    6.32160879490799
H        -3.15957861615096   11.82045477270274    6.34984245879638
H        -1.68872484584753   12.10747360943981    7.28980515193737
H        -1.76897423497106   10.72735374400042    6.15598756756206
C        -1.88523718495386   14.11041348797404    5.41267638614698
H        -2.96924810397602   14.20706019991109    5.47079680176297
H        -1.53137325848244   14.73566441657558    4.59685038530003
H        -1.45731090549257   14.48111678477218    6.34154453178513
C        -2.02906659900884   12.13626539492058    3.85391377212804
H        -3.11577519378292   12.06160169942086    3.87613392023764
H        -1.61821205417249   11.14678836894884    3.65176150324866
H        -1.75471969314694   12.80707701270616    3.04283351446345
C         1.41876952711435   12.98220230658898    3.99096641124945
C         2.81802184050925   12.67679321127591    4.54034879380647
H         3.57964253422063   12.86142835333714    3.78360504251797
H         2.87119823070299   11.61593948972810    4.83665617357067
H         3.04305222770347   13.29449970369314    5.40996080236762
C         1.23873711455491   14.47542915978379    3.75327623633172
H         2.05630478661551   14.85794822138404    3.14277535374097
H         1.23445318294412   15.01357034276688    4.69955967081373
H         0.30554198047984   14.67646763649017    3.23125311979456
C         1.21377436295169   12.16943367342225    2.71735912312846
H         2.01836027010330   12.37152786960750    2.01105551988622
H         0.27104117023195   12.40894783554449    2.23352104478460
H         1.22099944837605   11.10393892314378    2.95914259045877

