69
CSD_code = SINVOC | q = 0 | S = 0 | Stoichiometry = C26H38O2P2Pd | MND = 4
Pd        0.17514479055134    3.62050513027008    9.05237436011870
P         0.42397395431005    1.42528372859645    8.76560950934369
O         1.43106643791538    1.23880639959772    7.49737565669212
C         1.46332212314788    3.62099108617930    7.49877619844702
C         1.89265635638742    2.42938703318936    6.93049869249089
C         2.74130501271460    2.41118409779400    5.83525268747888
H         3.06414817455014    1.47347143032743    5.40955645793817
C         3.15877890032672    3.62105300398148    5.30039491246738
H         3.82034003723766    3.62105957370866    4.44738418054705
C         1.31220468397410    0.48303078918992   10.08485123969797
H         0.60745462122748    0.35774637844215   10.91384253437113
C         2.43547726729008    1.42319845417656   10.52290058204227
H         2.94679306366255    1.04815870002172   11.40770297752893
H         2.01333858111916    2.41332392848538   10.75011510238659
H         3.16691839914077    1.53539073666530    9.72102549039261
C         1.82704970083035   -0.86762325171260    9.60934817944667
H         2.41491011068456   -1.34468261093230   10.39212129040405
H         2.45835648817981   -0.74112916629442    8.73206486379001
H         1.00251538516324   -1.52796968734103    9.34792954719936
C        -1.03963589795904    0.46491168225243    8.18143096858153
H        -0.70482475065303   -0.42879490386172    7.64229499640845
C        -1.74373699641298    1.42617641625851    7.22264893213164
H        -2.67871734968272    1.00684047682251    6.85383255208921
H        -1.10265877938008    1.64986825369171    6.36770991239819
H        -1.96182828929655    2.36782700819095    7.74919252769582
C        -1.93034400063658    0.09717824890905    9.35944358221125
H        -2.88813078004075   -0.28503154862986    9.00988473925798
H        -2.11156169130797    0.97911559530272    9.97455639878694
H        -1.46517442964839   -0.66467256687667    9.98145509134213
C        -1.17155988483314    3.62055273033272   10.57788475705915
H        -2.25228013518554    3.62158982311621   10.35060710236574
C        -0.85391104530822    3.62139299370647   11.87696523830933
H         0.19673126168027    3.62114086331415   12.17552659207856
C        -1.77287008280658    3.62080307910901   13.01401266800969
C        -1.24671171109970    3.62129896923150   14.30868541335378
H        -0.17242734469000    3.62099892048354   14.43953606363563
C        -2.06809848430338    3.62169131364301   15.41841315466691
H        -1.63453346672417    3.62101244668267   16.40906576989339
C        -3.44467473171303    3.62142490613730   15.26583086923102
H        -4.09051619854599    3.62118020392522   16.13200856019484
C        -3.98526336231581    3.62079358493850   13.99046034934763
H        -5.05891894457036    3.62139829855752   13.86078360536106
C        -3.16319172672686    3.62049635782583   12.88127139238192
H        -3.61136349927544    3.62124402874093   11.89812776551669
P         0.42385654652576    5.81644811274931    8.76566003499724
O         1.43091496049475    6.00316643277790    7.49744060005251
C         1.89261919320176    4.81264434394615    6.93053938696660
C         2.74124634751288    4.83090528467771    5.83526106477769
H         3.06406658241761    5.76862901665907    5.40956777391171
C         1.31210386742789    6.75877650988838   10.08484603622955
H         0.60736466466068    6.88398744628573   10.91385565908530
C         2.43542819436048    5.81862746704214   10.52280866139117
H         2.94672621761128    6.19361614436935   11.40764313726978
H         2.01332160962585    4.82847085529382   10.74995719998008
H         3.16690427929376    5.70651037571688    9.72095352514936
C         1.82696414589648    8.10950430328587    9.60951190147695
H         2.41485387929584    8.58658844385878   10.39225564735391
H         2.45822907851845    7.98308234304777    8.73219039190381
H         1.00240434790030    8.76983583221673    9.34815404831713
C        -1.03970269968976    6.77695721828362    8.18156532967755
H        -0.70497148776642    7.67070803547088    7.64244038622268
C        -1.74378178536670    5.81573340692034    7.22275002453908
H        -2.67878084913654    6.23510303467563    6.85399966852706
H        -1.10272199851144    5.59209325677348    6.36776928971520
H        -1.96182316660220    4.87409152855200    7.74935415155815
C        -1.93036149615954    7.14463531752995    9.35962387342636
H        -2.88815270148039    7.52684213085052    9.01006736369754
H        -2.11154870269398    6.26263363844998    9.97466690639260
H        -1.46521079434089    7.90648658456178    9.98166447217934

