58
CSD_code = SINVUI | q = 0 | S = 0 | Stoichiometry = C19H34O2P2Pd | MND = 4
Pd       -0.86928517374540    1.66213139247586    3.73728001336086
P        -1.85018389398939   -0.24256662857107    3.11358040537301
P        -0.22994175701448    3.80106537090177    3.71041417576493
O        -2.56578181960400    0.06019281463660    1.67960124003378
O        -1.01843465069305    4.49389984859937    2.46143999323742
C        -1.79980067878715    2.28225328749284    2.05764145084538
C        -2.51731290705543    1.39323397994276    1.27046124314072
C        -3.16803989830971    1.80332780213024    0.11757811407102
H        -3.72175552991610    1.09423508207891   -0.47866980083137
C        -3.09194708063100    3.13942427229400   -0.24689890191803
H        -3.59416970463880    3.47235016273615   -1.14256773102345
C        -2.38384123639424    4.05624973119126    0.51577883375023
H        -2.32635155863724    5.09453350645596    0.22672008390401
C        -1.74549896544697    3.61102330491811    1.66262459893530
C        -0.89857989230224   -1.77040047735272    2.69448430017102
H        -0.56478966854081   -2.20663383690854    3.64206409028135
C         0.31882891659181   -1.26186287741132    1.92316161771742
H         1.03606970590091   -2.05975848443269    1.73874192682187
H         0.81198848154774   -0.46871058360094    2.49990785514370
H         0.00717826858048   -0.84609085918798    0.96447075184472
C        -1.71510521551641   -2.78231537883734    1.90393042229638
H        -1.09022605511167   -3.62481407500861    1.61091070991764
H        -2.11506941675873   -2.31945465546692    1.00447527824875
H        -2.54601489398079   -3.16007008094866    2.49634197607160
C        -3.32551755132636   -0.70049439038655    4.13585091186203
H        -4.02958550833322   -1.27165323229004    3.51856332493364
C        -2.91479642304182   -1.49313776589424    5.36799111545300
H        -3.76604255581044   -1.62823863119921    6.03390108836788
H        -2.13570169108383   -0.95610050752254    5.90701349529547
H        -2.53497782882168   -2.47589072224107    5.09604419030730
C        -3.93936893792681    0.64709562537602    4.52089059599309
H        -4.78383883367726    0.51910429078737    5.19682512298674
H        -4.28509151477090    1.17886930575738    3.63203047386562
H        -3.17547503100010    1.26551165612837    5.02175754279613
C         1.52571612152937    4.04905177851926    3.16577864138674
H         1.59085888224731    4.99336224314074    2.61082144420339
C         2.49849508860925    4.04493587627691    4.33557448138801
H         3.52512479962224    4.07376491561262    3.97295559510381
H         2.36817148303585    3.13717453302753    4.92250422322275
H         2.34140840848761    4.90390362611546    4.98469707447026
C         1.78553319532185    2.86912980463387    2.22641975435873
H         2.81107086954587    2.87184210289857    1.85919884721882
H         1.10999649931188    2.90699908883790    1.36787108697995
H         1.60699668896482    1.92701685813809    2.77249164460999
C        -0.62984463044812    5.00030650430824    5.05800907977239
H         0.03792336600240    4.76847200746460    5.89471594070962
C        -0.46626201085600    6.45230925747745    4.63295155550477
H        -0.78004060747396    7.11774618400103    5.43602763297255
H        -1.07737288339669    6.65620642214135    3.75655929340524
H         0.57078789400647    6.67311126479621    4.38847695957056
C        -2.06553152082797    4.66182602694155    5.45739754933934
H        -2.36863908023956    5.20331648002338    6.35171088103684
H        -2.14754487441871    3.58480421660528    5.65094176705189
H        -2.74913585766434    4.91772515550652    4.64748044564101
C         0.04835236031525    1.02341056626267    5.49206469200768
H         0.92319168658993    1.61331392566434    5.79762048241257
H         0.38087832566010   -0.02479914930042    5.46460276978498
H        -0.67217370368719    1.10256206430396    6.32558764882616

