47
CSD_code = SINWES | q = 0 | S = 0 | Stoichiometry = C20H18N6S2Zn | MND = 6
Zn        0.59654458209511    3.78006237130789    5.29712341885496
S         3.83786299799691    6.97583253761893    5.51964621146350
S        -1.55379135756943    1.78196658457372    1.92614298689602
N        -0.56241569368937    1.95048889578421    6.06435415572312
N        -1.25146782070468    4.52172788793437    6.02694917354712
N         1.98566098791981    2.14093668460067    5.06655657452664
N         1.42153481397208    3.39288963404947    7.44048434861306
N         1.66184642005492    5.31414687433588    5.20816800817308
N        -0.10752221563837    3.48054043199587    3.54922058780444
C        -1.95243740030668    2.22694531970292    5.74290452994191
H        -2.11225069096053    2.05316918463866    4.67427096964065
H        -2.64467552128238    1.57333000472740    6.29551864033225
C        -2.27243085164692    3.67276131365459    6.00823626455876
C        -3.58346806287897    4.09996716119822    6.18767411524286
H        -4.39255339857816    3.38595226244973    6.16387165307337
C        -3.82804198469114    5.44847828991740    6.37966033321710
H        -4.83763097626840    5.80742928099609    6.51313179315933
C        -2.75428629956722    6.32625132068506    6.39480698239638
H        -2.90169532330740    7.38432434443527    6.53893263594460
C        -1.48155807721719    5.81362199818892    6.21246755388717
H        -0.60661651970471    6.44720803836710    6.20728709920279
C        -0.00712007339900    0.81010515922868    5.35722131772926
H        -0.42199391326207    0.79334314508834    4.34353413792432
H        -0.26625114062034   -0.14308843273660    5.84473779104583
C         1.48422048276528    0.92034841779458    5.20461405878654
C         2.29237642470092   -0.20986942824503    5.15444027114591
H         1.85855570438853   -1.19167238445038    5.26833688715597
C         3.65174702399565   -0.05357471215280    4.94626485478105
H         4.30057032719914   -0.91557232749575    4.90115275826891
C         4.16142865422040    1.22681455093426    4.79409414807971
H         5.21260393364367    1.39334735597584    4.62348414595625
C         3.28462876551671    2.29575952453778    4.86409985374531
H         3.62191345875911    3.31642096667650    4.75506874154104
C        -0.38381991058611    1.82174601726042    7.50323062132525
H        -0.59939382087229    0.79737595595473    7.84621602463612
H        -1.08569293459652    2.50211707906246    7.99562059290816
C         0.99407431117516    2.23624549298784    7.93279898130860
C         1.74868338470249    1.48124919549702    8.82014752471655
H         1.37267937433014    0.54029961046929    9.19285450229202
C         2.98789142332796    1.95849557330248    9.21583986548156
H         3.60104885534548    1.38998467534166    9.89928997338218
C         3.41637903680970    3.17883611508467    8.72138400311527
H         4.36642312911817    3.59756402843221    9.01114675618956
C         2.59658521268631    3.85726112871435    7.83246371905616
H         2.89171783822830    4.80837840038791    7.41612045573838
C         2.59040907315755    6.03044792030536    5.31952033185424
C        -0.70917222875947    2.78270655088813    2.82000964563660

