58
CSD_code = SINXEV | q = 0 | S = 0 | Stoichiometry = C25H29ClN2Ru | MND = 8
Ru        1.08345099324355    3.09770835025255   11.22543353346235
Cl       -1.04448326169580    3.60887966608457   12.03476668006204
N         0.43544163801032    1.28420119575372   10.86056296262956
C         0.23448170246241    0.75817408467005    9.56975117507507
C         1.21782551580481   -0.08760466211410    9.03765912680312
C         1.06154366783255   -0.58731861942049    7.75474001276574
H         1.82661883079859   -1.23436751995091    7.34914356631379
C        -0.05003748868068   -0.27760691115164    6.98646011085595
C        -1.01761749310855    0.55293587013228    7.53369885270722
H        -1.89310351188016    0.79886042946219    6.94943950645541
C        -0.89994746980053    1.07568129612773    8.81178943563978
C         2.43236251655948   -0.43573628873601    9.84509559230652
H         2.19023084742117   -1.17795144265841   10.60596215198842
H         2.81195376510254    0.45036302483751   10.35514542041495
H         3.21344877184219   -0.84176567457537    9.20737623170937
C        -0.22130903544553   -0.83838470782853    5.60756611999798
H        -0.95614808886148   -1.64367558316690    5.62090297136879
H         0.71628735024792   -1.23858841113803    5.22995081102087
H        -0.57978188514240   -0.07270050595050    4.92242022414236
C        -1.96442812192033    1.96378653861065    9.36676641800009
H        -2.81580652205457    2.01611907607591    8.69332430568416
H        -1.57510625364722    2.97165269190526    9.51606647422039
H        -2.30128766927289    1.60749983988449   10.33910279897205
C         0.23971481172643    0.53273189502757   11.92718155110870
H        -0.23429944629597   -0.43994454225110   11.86294780825030
C         0.79684899475523    1.05543225549846   13.10078626071918
H         0.80400076795154    0.53553948619638   14.05173274343896
N         1.42954328940148    2.20023041058901   12.92739206689338
C         2.27202154730755    2.71811045290444   13.93079093079778
C         1.78503372097828    3.54561584636829   14.94910285946790
C         2.68094321124850    4.06252016743359   15.87476241845363
H         2.30366797755616    4.70862449149177   16.65467846563071
C         4.03411968912873    3.77004088633274   15.83043865472764
C         4.49233268460499    2.91893675388289   14.83326735189860
H         5.54213931182585    2.66374858753660   14.79506034936973
C         3.63409333822914    2.38416108879347   13.88881055137572
C         0.33020710971522    3.86812532114805   15.04496127925688
H        -0.26383389855445    2.95836890527209   15.12318784408144
H        -0.00490472234501    4.38580550635634   14.14679872407798
H         0.12933144448368    4.49515171760951   15.90933846503863
C         4.99030805825231    4.34615884475260   16.82988992290111
H         4.46078562781863    4.89889016925896   17.60137272486914
H         5.68807174636487    5.02299527149684   16.33723202133398
H         5.57185346972595    3.55560551717065   17.30170026305683
C         4.14417981801560    1.44532796435704   12.83715561411385
H         5.23004099465021    1.40238945476847   12.85148366338343
H         3.81524893728749    1.77115284439248   11.84855573044577
H         3.75457032841951    0.44050097971765   13.00315135505526
C         2.91038974559848    4.36933809174172   10.94721681338440
H         3.79717629714227    4.38237190762377   11.56630801399770
C         2.72123724688175    3.58302538945863    9.77320053474533
H         3.46078075942360    2.93733015826767    9.31792224957896
C         1.51816727750003    4.01562626104549    9.14648530588254
H         1.15864045004675    3.68861469295771    8.18134717440933
C         0.94859817301212    5.01317988668782    9.95294916431997
H         0.06934102114937    5.59825899868080    9.71503268956810
C         1.80307291577339    5.23411407491111   11.07956850924999
H         1.70858850340071    6.04435852540783   11.78896544251709

