47
CSD_code = SINYOE | q = 0 | S = 0 | Stoichiometry = C12H28N2O4Ti | MND = 6
C        10.57373309944754    0.00015619002404    4.40629716099635
H        10.86320470018859   -0.98803961113445    4.81899763107358
H        11.28337686404840    0.21001624875126    3.57649267592686
C         9.13094244028605   -0.10269491850951    3.83727961466810
H         9.14451746440782   -0.53215313621124    2.82220588187123
H         8.54428799463004   -0.75582081870509    4.48752413331568
C         8.65904761595627    1.99846606828790    2.63941942300554
H         7.88757825906639    2.77023362132770    2.64796963452467
H         8.51487283412874    1.37317953923117    1.73924939827717
C        10.04518478243803    2.66752992530872    2.55497499240396
H        10.78401255016453    1.91039863337033    2.27956856017609
H        10.02227103217845    3.42774738098127    1.75515359511669
C        10.02986867692726    4.63470070475863    4.04139912850403
H        10.18027581257351    5.25313117667559    3.13875369697018
H        10.64094540683448    5.02478891865982    4.85908690699203
C         8.54368387641091    4.66001088922578    4.48310739941036
H         8.36723605859459    5.57693076855020    5.08063821892086
H         7.89414836655082    4.74245564752521    3.58396750008002
C         8.65219028182918    0.65496037882641    7.86842304313219
H         9.72259730874318    0.76048543518876    8.14505164015744
C         8.40080680024004   -0.81749265027377    7.49866414434557
H         9.09619337270423   -1.11528009813208    6.71749079913693
H         7.37921059974776   -0.93127829583027    7.13747476262079
H         8.54603212090596   -1.45948743895489    8.36449734297487
C         7.78447445069136    1.04321199900212    9.07851837529577
H         7.97536470474057    2.07869333390231    9.35007760518678
H         8.00389637603236    0.40326428702551    9.93035974031124
H         6.73344289838875    0.94232884870938    8.81410703425519
C        10.52011069966689    3.76030734676844    7.92084277533356
H        10.54382364434547    2.93393130652705    8.66424282378460
C        11.72503795881614    4.67704475461322    8.19646539213417
H        12.64753386758182    4.11485532446737    8.06842388894921
H        11.68355890456381    5.07125006164598    9.20873017687896
H        11.72345994972093    5.50623761863418    7.49065499247937
C         9.20242613638391    4.53445656408265    8.09744882050753
H         8.39124082607323    3.91947959779060    7.69871568953610
H         9.24299452326993    5.46542509682204    7.53268220817339
H         9.02481486178537    4.76498740640744    9.14654435720838
H         7.56316940331525    1.18643570701728    4.16074146285733
H        11.41494700781304    3.13274371294850    4.01009929659747
N         8.53032089494471    1.22029447108049    3.85641914581588
N        10.42369654144575    3.25139768000185    3.82935177291803
O        10.65073327021230    0.96811899727999    5.36682829386445
O         8.23162664619388    3.53804671981228    5.20156919296203
O         8.36655545188740    1.48282739799629    6.79377264043640
O        10.61512007652549    3.23058660295294    6.64701298633632
Ti        9.46303258659783    2.29803060557144    5.70540404357766

