97
CSD_code = SINZEV | q = 0 | S = 0 | Stoichiometry = C33H56O3Si4W | MND = 10
O         7.00764673068391   29.18987563273835    8.29443498941634
O         7.48221741799566   25.36786843496999    7.40299917502624
O         5.47673648715917   28.37576030914163    5.78236804115754
W         4.98989942030539   26.84609779977661    8.50648965867098
Si        5.08590330216432   28.62786896010548    4.22005180729001
Si        6.27237579303719   29.91093024867684    1.73243409575033
Si        8.04396876503166   29.60057804985244    4.38118448037087
Si        7.26591132484189   27.02365395797121    2.66111669815009
C         6.27980428518408   28.29489919228484    8.34085337030064
C         6.54103732571214   25.92666569027026    7.76741784651442
C         3.98438165547511   29.71432595347383    7.14018902732153
H         4.80806526703966   30.40776773286610    7.29422514251829
H         3.37975591561472   29.67107447203356    8.04327341959711
H         3.37202925575418   30.09459185696882    6.32200972625349
C         4.52541112905081   28.34872073269154    6.78708098264331
C         3.63096486780217   27.23492788774661    6.80059478158936
H         2.58915531292212   27.35840337338464    7.08737917313939
C         4.20056703062922   25.98820194743317    6.45344580516217
H         5.02400584302782   26.01245882064779    5.74466059411442
C         3.44037514536657   24.73666845940860    6.42702399308729
C         2.05791721303676   24.69415494891851    6.23791699942083
H         1.50833579862003   25.61267414181362    6.08750229246873
C         1.38492610318193   23.48614446311697    6.20652736737052
H         0.31496220801613   23.47311520251392    6.05508416821677
C         2.07441904520145   22.29613803914816    6.36424642554782
H         1.54561290268314   21.35485909795171    6.34506459589601
C         3.45069329282408   22.32109259941416    6.53407631072897
H         3.99661757631231   21.39538469220380    6.64671147523001
C         4.12646837101653   23.52486503893895    6.55557798197482
H         5.19936863680923   23.54618451573332    6.68630414164442
C         6.70219847060179   28.78239857892741    3.23911100654296
C         6.11147370795540   31.75369922609846    2.21446171262357
H         5.89903160797440   32.36215196154484    1.34004173528162
H         7.01360407546780   32.14173307517800    2.67144254261230
H         5.29788038405535   31.90258361380832    2.91565128371418
C         4.58028830488724   29.48077636047524    0.95801080896395
H         4.39057490202914   30.09575947669882    0.08315781264309
H         3.77607461231832   29.65457621373723    1.66306221959170
H         4.51916331507681   28.44674485223653    0.64594010299461
C         7.55335680954353   29.82914622918173    0.31839610410830
H         7.58259543258457   28.84735853128310   -0.13924193458333
H         8.55325709271906   30.06496619100139    0.66052061763382
H         7.29965767577496   30.54241136741031   -0.45989630889060
C         7.31201615896949   31.03933604455281    5.40947460815043
H         7.25687796964309   30.75504876926903    6.45422707900111
H         6.31002014003456   31.29658842141474    5.08680805777385
H         7.92152998705460   31.93578317543958    5.34620982720404
C         8.82448643661396   28.36608344488137    5.60525192207941
H         9.36892920352941   27.57120158798064    5.10813901309400
H         8.06184453262516   27.90910894358275    6.22547528895280
H         9.51751839339071   28.87423814826435    6.26971424716213
C         9.49015989372311   30.34355761039184    3.37296459920242
H        10.25079036963179   30.72679943646131    4.04615404543453
H         9.16922806439321   31.16602377356479    2.74433913408515
H         9.96435240110031   29.60733213908860    2.73648942645447
C         7.12923898015956   25.69783143631179    4.02827094822348
H         6.17449415218240   25.18258779379252    3.97624228063803
H         7.22340457073966   26.13195926566334    5.01489405855541
H         7.90562686396159   24.94472728121118    3.93191540833927
C         9.06689372682489   26.98489335120903    2.02194733514812
H         9.78024173918156   27.16623984120996    2.81766380711516
H         9.24152172732336   27.72131060629191    1.24731694692507
H         9.29237551754541   26.01014664843207    1.59925970344582
C         6.18630651086280   26.33795508861007    1.23805852341841
H         6.46615071161376   25.31167351464562    1.01863752574420
H         6.29768136165119   26.90565568210054    0.32181863031302
H         5.13505605282664   26.33644031100746    1.50503546455125
C         3.30571946471675   25.75216627144786    9.79426650580919
C         4.58459845967566   25.31906845002767   10.22208988371650
C         5.29759226870332   26.46601794536982   10.71771082163542
C         4.40711048553616   27.59653574567063   10.63337078845640
C         3.19918636404440   27.16007386842879   10.03715143790867
C         2.16318257605874   24.84320783705948    9.45881033763311
H         1.66255645927043   24.53884273255610   10.38130001277094
H         2.50383271928871   23.94197101238868    8.95367268662588
H         1.42569954750884   25.33081872420596    8.82380942394290
C         5.04304772711470   23.89458468834365   10.31855799217532
H         4.73479290334495   23.46690882414850   11.27511402404561
H         6.12731695424964   23.82953294990126   10.24992585145598
H         4.61241204291139   23.29015487792226    9.52174639659234
C         6.56973135849248   26.42291640292082   11.51805885837392
H         7.08856287404010   27.37885327807545   11.47326785111531
H         7.24086183545014   25.65415508889431   11.13891801165216
H         6.34858511583780   26.20036964459621   12.56421273003213
C         4.67230138325289   28.94056402299705   11.24413792846019
H         4.50232499303126   28.89795593634682   12.32225546199610
H         4.01671969456579   29.70277011575316   10.82759809434158
H         5.70316717753385   29.25103086614346   11.07950065761108
C         1.92068754169862   27.94816429120820    9.97889596676539
H         1.27689276080485   27.58096427765764    9.17434007456236
H         2.12652562874464   29.00458441133917    9.78173718687544
C         1.16438204139951   27.83690939286073   11.30563165737883
H         0.91970378135803   26.79891409493633   11.51761127065752
H         0.24035845000891   28.40961488845891   11.26525148697367
H         1.77422256195438   28.21856679237050   12.12100769296677
H         4.24766234584253   29.84115943865811    4.15786421819153
H         4.19522720452781   27.55294288437948    3.74797453844302

