88
CSD_code = SINZIZ | q = 0 | S = 0 | Stoichiometry = C27H52O4Si4W | MND = 10
W         6.40891462703731   24.59142735651578   11.02478858349755
Si        6.71291503157309   20.21111050856846    9.43130561490248
H         6.12333560200993   20.20901766909963    8.08282108114123
H         5.63840865574503   19.75883274868247   10.33083721429579
Si        7.98247332902181   17.66537104877145    8.40361202329280
Si        9.81906609362036   20.23894085891385    8.92830862803518
Si        8.58305947589072   18.63871842980513   11.38389107658990
O         8.75650789304707   24.15500468835329    9.04318827523983
O         8.92833976941698   23.82856173979902   12.66719683154383
O         7.05617115072990   21.76578217232144    9.82615204874981
O         5.33013452792149   22.80000428423245    8.65803051970242
C         7.86957772030408   24.31635614600451    9.76722204943297
C         7.98560205235281   24.12122704825689   12.06892403257712
C         5.82368655323665   22.70588485555030   12.24242782475867
H         6.62887156337758   21.99452741487669   12.37254842686626
H         5.19531271890888   22.82481907970037   13.12095103178592
C         5.18544702115984   22.74868152113138   10.98660086359471
H         4.12138857168423   22.91605622193147   10.84844320893957
C         6.02847574121416   22.67250992613669    9.83929346953076
C         6.08857100385628   23.13890732072889    7.50906162115401
H         6.42140203848272   24.18000642653983    7.56561816705335
H         5.41957767730100   23.00790635383359    6.66011417001726
H         6.95689730802336   22.48948635688532    7.40535145526546
C         8.30756292176899   19.18804468995679    9.54791963238779
C         6.20516209081403   16.99058658240683    8.57776936568006
H         5.95162440054388   16.75171335660897    9.60194606421793
H         6.07755741041795   16.08515182526911    7.99166321789318
H         5.48096354891765   17.71532790459201    8.22535559353167
C         8.14262932241112   18.08363004988109    6.54528386135301
H         7.97052325820960   17.19944172336378    5.93820293500200
H         9.12252489337580   18.46873439253488    6.29003068595292
H         7.40825167121521   18.82446102983554    6.24864597378773
C         9.15524859188062   16.19197299662319    8.72323742821047
H         9.00656830904178   15.76624952475427    9.70851925656129
H        10.19719196832961   16.47382152022155    8.63747002952464
H         8.97197756384525   15.40431379898959    7.99877291751361
C         9.41097748318247   21.23699008664756    7.34760617793069
H         8.51452238660055   20.87714820430961    6.85618758745985
H        10.22032230584912   21.19114479823771    6.62502879301848
H         9.26188193283972   22.28099765710381    7.59948181760879
C        11.31415780812070   19.13645116280737    8.46813728054177
H        11.10263770765786   18.49712089178103    7.61877026962961
H        11.62562961853162   18.50269201018314    9.28823338927639
H        12.16234062845595   19.75965050484783    8.20179627678599
C        10.43921537750823   21.48856916170542   10.22465597168600
H        11.23027739128944   22.10745056813627    9.81074647141250
H        10.82919321919275   21.00972833614527   11.11578370955256
H         9.63738694658166   22.15334173030611   10.52603458476521
C         8.38199965504997   20.04851307950966   12.65676826154223
H         9.07808934291345   19.94114881568758   13.48332982270497
H         7.38092420043257   20.04609179002221   13.07693546109466
H         8.55879910366011   21.01877959832365   12.21007481172428
C         7.32035563514361   17.31126959100060   11.93695827749452
H         7.43343400418190   17.10602193718978   12.99750364110646
H         7.44980958944479   16.37245567996817   11.41147305683253
H         6.30054255631959   17.64454783910418   11.77823455606734
C        10.31203470553805   17.88645027273926   11.70139665065333
H        11.09283377711730   18.63543016340687   11.63263632271963
H        10.55199449380387   17.09246195590967   11.00570899391017
H        10.35486297481639   17.46430269639624   12.70122343204653
C         5.54416228875290   26.45459556440550    9.92643338480047
C         6.41948974470909   26.86088724921787   10.99983812473782
C         5.78427735435871   26.48909618097526   12.23587570985277
C         4.59335175139109   25.79325183419957   11.92045096724187
C         4.44128084261444   25.77611974930209   10.49359041154566
C         5.69964641713983   26.87524743699175    8.49451528176242
H         5.39587939737204   27.91879836376699    8.38197043630331
H         5.08005311392813   26.26870735840322    7.83690700770770
H         6.73641861342362   26.79488129313085    8.16842144704816
C         7.55691082830935   27.83513590224932   10.86366980516341
H         8.07401698826167   27.69738873770585    9.91561543984844
H         8.27989872431782   27.70294370610890   11.66678658087142
H         7.18140084591720   28.85997803562229   10.90432920433867
C         6.23933111083173   26.90276058520820   13.60319673065546
H         5.92197040184441   26.18759016831094   14.35951262808224
H         5.81580963544832   27.87698599487443   13.85714321724824
H         7.32389489500795   26.98158180743538   13.64418220726024
C         3.55142825576456   25.37136778987445   12.91395692597803
H         2.95808385242511   24.53396082152328   12.54882810029844
H         2.87010212237005   26.20248684503378   13.11075454341303
H         4.00470524796754   25.08287156822772   13.86139689058025
C         3.20089625912977   25.36493179251527    9.75138303308774
H         2.64179205943542   24.61801655888941   10.32138737567582
H         3.46442102152904   24.91184711072378    8.79139840598283
C         2.29130019482272   26.57419099602870    9.51648340259246
H         2.00613401775864   27.02267195941074   10.46594882104952
H         1.38782979191016   26.27186325542816    8.99154427403615
H         2.80126930236516   27.32849323130067    8.92246884568683

