44
CSD_code = SIPCUQ | q = 0 | S = 0 | Stoichiometry = C18H17Cl2NO5W | MND = 7
W        16.99449050759058    6.99132113074288   14.81126853140757
Cl       17.69889287742490    9.96985682252347   13.26166273187490
Cl       20.22146335937459    5.57298130370030   11.68383077507170
C        16.28143003109644    7.09652207571662   12.97697502867887
O        16.01139515806210    7.20326037587609   11.85015662840908
N        19.01006911069486    7.37777834611631   14.75436771226671
C        18.63894327682553    7.35317569682624   13.57780240381176
C        19.06190380438417    7.89514274099732   12.31063838916504
C        18.63227228256921    9.19839231675939   12.02518895130815
C        18.92334940724027    9.79892199377467   10.81821533181986
H        18.58778045624928   10.80356036300264   10.62252568347240
C        19.64367889709540    9.08457798151757    9.86994859454098
H        19.87536676140245    9.54494134462794    8.92269929495594
C        20.05879609787516    7.78550680784643   10.11592492445290
H        20.60635233835398    7.23042778341510    9.37152982911658
C        19.76220896029979    7.19288880655547   11.33106086293289
O        17.53612583983789    4.88362602680940   14.68381228830151
C        17.76364950301350    4.12451912401784   15.68412656497776
C        17.76590098999149    4.48504037454357   17.02705255562202
H        17.94885700559928    3.69003137574513   17.73570543158724
C        17.58312435616658    5.77006485865402   17.57689305055248
O        17.39457456382644    6.83282782286624   16.94107524832361
C        18.07175736633028    2.68074571765536   15.35009393728400
H        17.93525484038034    2.52374689147019   14.28320199510116
H        17.41977641788210    2.01158464528317   15.90610572479463
H        19.10222818340157    2.45302052476824   15.61570663263327
C        17.63830718658680    5.86326326119625   19.08762958623192
H        17.44416735247090    6.88644787529242   19.39902148545653
H        18.62274431449428    5.56226915315592   19.43952292305399
H        16.89992984784742    5.20015834114788   19.53298028362604
O        16.12121432083177    8.61068797014077   15.41055303647533
C        15.16861440517504    8.88102845869192   16.22903891192522
C        14.28098981237741    7.88291806333854   16.66357230178831
H        13.46767942044450    8.17799971309402   17.30728028318021
C        14.39500367058916    6.53849748343109   16.31857188008572
O        15.31335722346936    6.06656402621087   15.54688600478628
C        14.98689801072243   10.31517672496631   16.65554642162939
H        15.87253318970725   10.88723728058368   16.38687318055318
H        14.82300731504902   10.37899180832287   17.72832011915517
H        14.12305082295101   10.74911485878779   16.15238916361901
C        13.38543905188828    5.54887123210845   16.85214372318450
H        12.43698013693193    5.67054691515253   16.33032948197297
H        13.21298399923785    5.70589669331900   17.91408020607120
H        13.74875752625801    4.53766688924960   16.68339190474587

