41
CSD_code = SIPDIF | q = 0 | S = 0 | Stoichiometry = C14H20O6W | MND = 7
W         6.32266153147666    7.77661464450884    5.69659358018790
O         5.41051462427194    7.71326790793746    7.38670275512898
C         6.57308939655793    7.11312981724334    7.71060614531422
C         7.41919992507657    7.95363571993368    8.66887037502836
H         7.41583445072857    8.99226836873358    8.31535755971850
H         8.44260433027338    7.58671218722650    8.70869986147869
H         6.99633827718931    7.92107711467297    9.67501957329387
C         6.42966993049160    5.64762570372547    8.11577891528381
H         6.05866741799970    5.57116588875254    9.13977501572947
H         7.39167147150015    5.14300411370338    8.05460998604327
H         5.72105672031443    5.15795160888748    7.44314087889262
C         8.13003220251731    7.07044837855791    5.99848450302197
O         9.13356393167584    6.58959284782459    6.35896278093842
O         5.39437432080966    5.88462114423818    5.15480353381957
C         4.35765691421408    5.75275800471450    4.42318746232108
C         3.50869406869571    6.76722840429979    3.99348710859796
H         2.68403182357973    6.47658589361239    3.35920742578566
C         3.58996142216971    8.13285357069416    4.33029409752304
O         4.45947543878228    8.66277244069455    5.05954995096262
C         4.01681488440699    4.33656923105773    4.00986578262223
H         4.80591706533522    3.66609637062934    4.33984898242026
H         3.91301488894959    4.27275237339446    2.92966380491587
H         3.07426526951682    4.03275018987524    4.46070040882956
C         2.50948483411991    9.03001102826742    3.76319153230247
H         1.53397209976039    8.71074887577809    4.12358331184603
H         2.50739732061669    8.97011542218878    2.67708054979009
H         2.68800571748945   10.05723758355001    4.07002868167258
O         6.54485554877172    7.78903517062519    3.70617365755109
C         6.67400278497079    8.81551907675940    2.91410477404420
C         6.89870457571834   10.10877104792332    3.36173492391001
H         7.01142730260174   10.88734294663924    2.62324439412120
C         6.95779035770675   10.48667382870820    4.71819338840893
O         6.90092232689026    9.61196524034001    5.66252535429577
C         6.58292627892101    8.53535539522963    1.43185387373406
H         6.26745088537575    7.50534317700357    1.28236623393615
H         7.55473552990171    8.67712567178892    0.96148120339937
H         5.87312063649593    9.20695487415194    0.95382276827865
C         7.15481606468411   11.93313344026417    5.09953518125090
H         6.35535758913859   12.54922723535295    4.69283590484892
H         8.10100401153567   12.30525354869509    4.70885607873045
H         7.15721582876984   12.02150451181558    6.18347770002179

