56
CSD_code = SIPDAX | q = 0 | S = 0 | Stoichiometry = C24H25NO5W | MND = 7
W         6.45984638583739    2.58685219336585    3.05851809170859
C         7.97797177448284    3.26821968390497    4.12511721697217
O         8.84505254504917    3.56773481629797    4.83725432224961
N         6.43659604437068    0.65047326751908    3.21557606028028
C         7.24711833119771    0.96419596141024    4.32090611458132
H         6.79261940537648    0.77451999925461    5.31227516415227
C         5.71397892830872   -0.50750735059443    3.08643559898835
C         4.88137415535115   -0.66994967428210    1.96761149383645
H         4.86259226222815    0.11255998492644    1.22174465457776
C         4.11484454431196   -1.80591913943030    1.82104736005949
H         3.47513915036020   -1.91238538362946    0.95626351567413
C         4.16730899629754   -2.81727562651195    2.76938431486120
H         3.56765910785222   -3.70701922680127    2.64988171876165
C         5.01073146189033   -2.68402605820796    3.86018309903707
H         5.07225172247488   -3.47636196864713    4.59249235695995
C         5.78310491576258   -1.55115350682809    4.02139157553002
H         6.45404432667396   -1.46757552560567    4.86316799736943
C         8.66298186578305    0.57577319766347    4.21286899718803
C         9.27501997487430    0.55130533485333    2.95409796231151
H         8.68472358619978    0.81237748372784    2.07643056097631
C        10.60626586888610    0.20899285867076    2.83072639984852
H        11.06971491363071    0.19052157429164    1.85483385778197
C        11.35602955708305   -0.10456977266607    3.95531616034405
H        12.39876594774943   -0.36682694159016    3.85572444340676
C        10.76266550780066   -0.07288717685718    5.20531624498502
H        11.34367148030687   -0.31046611188591    6.08455706167917
C         9.42699521126030    0.26151889969956    5.33519286859232
H         8.96765904797408    0.28669399964463    6.31312777835737
O         4.76191729923734    2.39571755286902    1.72733026110184
C         3.57348513853672    2.71079240060675    1.98796320610132
C         3.03448027537910    2.91437347245565    3.26916807622416
H         1.97847269825214    3.13604882825213    3.31779608048463
C         3.71309153102594    2.82757897134484    4.48404687777255
O         4.95820351065916    2.62555680740905    4.64875414615027
C         2.61824267495521    2.83635815137606    0.81973264256916
H         3.17469435678396    2.80823028866192   -0.11393108660381
H         2.05572462692934    3.76432042275771    0.88348032640870
H         1.91276958222246    2.00730418533644    0.83710411247408
C         2.89197190265691    2.97653635772202    5.74715785930913
H         3.54370421150765    2.88598547050657    6.61211582160932
H         2.12298751692959    2.20844834702076    5.78903003645935
H         2.40405625547912    3.94850325786015    5.76338662617432
O         5.81547801648038    4.47612888755196    2.86825455660834
C         5.82590886705450    5.25375006400961    1.83820629874614
C         6.52034461899079    4.96521278357191    0.66668565867380
H         6.48285968035027    5.68748419898303   -0.13408116016495
C         7.24776265504872    3.78455195393291    0.44593185542176
O         7.39735278103187    2.88402196538048    1.35115381531055
C         5.04801493550746    6.54532888060154    1.94688267405338
H         4.43781899923442    6.52344905805243    2.84703777090390
H         4.41056310587844    6.68687448957240    1.07704825136447
H         5.73276907957321    7.39008073852019    2.00800677613057
C         7.93144883684418    3.55963510043166   -0.88182491731812
H         8.39645843485515    2.57662965707976   -0.88498371775174
H         8.69742807324034    4.31618730752573   -1.04555831413805
H         7.21456331598752    3.62149460892037   -1.69793752514848

