69
CSD_code = SIPFIG | q = 0 | S = 0 | Stoichiometry = C36H28N2NiO2 | MND = 4
Ni        0.00000000000002    0.00000000000001   -0.00000000000000
O        -0.76160151522179    1.64733328961326    0.34088244498984
N        -1.16154158030472   -0.77135289069115    1.31178217979374
C        -1.71779866300743   -0.13888445858565    2.30006977512219
C        -1.72184022185336    1.26263622396084    2.49322691057075
C        -1.27850398449426    2.08731569600345    1.42176688254632
C        -1.45561755202432    3.50466215354933    1.53778903357762
C        -1.99213642267200    4.05862669780724    2.64848752671059
C        -2.39665851494227    3.26464807707779    3.75531710085470
C        -2.92009578930568    3.86280579321709    4.91238557777150
C        -3.29145437592321    3.10496118754450    5.99229663117239
C        -3.13490871668490    1.71875699595245    5.94152062644407
C        -2.62652583635020    1.11120614181665    4.82064379170007
C        -2.25583381969004    1.85616024110580    3.68657008718111
C        -1.37962296786878   -2.16065409907235    1.20564421215517
C        -1.96317010592319   -2.68392617225569    0.04268166590051
C        -2.14013819927824   -4.05559267998218   -0.04774948118538
C        -1.76272177051849   -4.89960165710836    0.98312997198805
C        -1.19800386684170   -4.37457350267900    2.13212350388509
C        -1.00829652357865   -3.00979581262902    2.24317716700441
C        -2.40237262552839   -1.77331281559583   -1.06448582122743
H        -2.30143618176504   -0.73858114586181    2.99825952844648
H        -1.12821573843364    4.10192118722536    0.69981697687986
H        -2.11170048352281    5.13098792620233    2.71987839273609
H        -3.02150899351245    4.93871875873514    4.93698121856481
H        -3.69441439090802    3.57029688313454    6.87939732981315
H        -3.41255504911118    1.11928104843041    6.79653070591243
H        -2.50233517194027    0.03914508093119    4.82957680654746
H        -2.58086182078434   -4.46942272539856   -0.94363237361140
H        -1.90602286720718   -5.96559308131010    0.88683952087695
H        -0.89874443261372   -5.02619799575964    2.93965160657044
H        -0.54286913039824   -2.59130543389822    3.12438841138568
H        -2.48681842127224   -2.31778620051057   -2.00180186067489
H        -3.37180808014661   -1.33190838709867   -0.82802388675332
H        -1.68454030266498   -0.94369916696911   -1.19880915820246
O         0.76160151522186   -1.64733328961321   -0.34088244498982
C         1.27850398449431   -2.08731569600342   -1.42176688254631
C         1.72184022185337   -1.26263622396082   -2.49322691057078
C         1.71779866300742    0.13888445858567   -2.30006977512224
N         1.16154158030472    0.77135289069117   -1.31178217979379
C         1.37962296786879    2.16065409907236   -1.20564421215519
C         1.96317010592329    2.68392617225566   -0.04268166590055
C         2.14013819927837    4.05559267998215    0.04774948118538
C         1.76272177051851    4.89960165710837   -0.98312997198796
C         1.19800386684163    4.37457350267907   -2.13212350388497
C         1.00829652357857    3.00979581262909   -2.24317716700435
H         0.54286913039815    2.59130543389832   -3.12438841138565
H         0.89874443261364    5.02619799575974   -2.93965160657031
H         1.90602286720724    5.96559308131009   -0.88683952087684
H         2.58086182078451    4.46942272539849    0.94363237361140
C         2.40237262552853    1.77331281559576    1.06448582122735
H         2.48681842127229    2.31778620051045    2.00180186067484
H         3.37180808014680    1.33190838709872    0.82802388675324
H         1.68454030266521    0.94369916696897    1.19880915820229
H         2.30143618176506    0.73858114586182   -2.99825952844652
C         2.25583381969003   -1.85616024110580   -3.68657008718114
C         2.39665851494226   -3.26464807707780   -3.75531710085470
C         1.99213642267197   -4.05862669780723   -2.64848752671058
C         1.45561755202433   -3.50466215354931   -1.53778903357762
H         1.12821573843369   -4.10192118722532   -0.69981697687983
H         2.11170048352281   -5.13098792620233   -2.71987839273606
C         2.92009578930564   -3.86280579321712   -4.91238557777152
C         3.29145437592318   -3.10496118754453   -5.99229663117238
C         3.13490871668495   -1.71875699595250   -5.94152062644408
C         2.62652583635020   -1.11120614181667   -4.82064379170011
H         2.50233517194030   -0.03914508093122   -4.82957680654751
H         3.41255504911118   -1.11928104843049   -6.79653070591245
H         3.69441439090802   -3.57029688313460   -6.87939732981313
H         3.02150899351245   -4.93871875873516   -4.93698121856477

