89
CSD_code = SIPGUT | q = 0 | S = 0 | Stoichiometry = C32H51CoOP4 | MND = 5
C         7.82072810694262    7.65062158764654    6.50846953626907
C         8.94789922801244    7.59943688705695    5.65353048339639
C        10.09058324500062    6.87275793691209    5.94598581956676
C        10.16825591897697    6.16875114004177    7.12976458444569
C         9.08531664582940    6.23949595148861    8.00236895814763
C         7.92536942500322    6.94914031923426    7.74937416151513
C        11.39592343903397    5.37673611394043    7.47677393755341
C         6.82586725395279    7.02286222384202    8.80743498094492
C         7.05988086068493    6.08527439046997    9.99807716128497
C         5.46631931950154    6.65745113177818    8.20282782715801
C         6.78551353726589    8.45996443764493    9.34378217088581
C        10.17035126534840    9.74488308078842    4.23592778313525
C        10.61759276538203   10.36393808050719    3.06906558786281
C        11.59397864653278   11.33971471126862    3.12064601657446
C        12.12955212539235   11.72168649229212    4.34113836825602
C        11.68369677609730   11.11975375557528    5.50639274013947
C        10.70717451456491   10.14156704071590    5.45602488153062
C         9.43223184226778    7.38837614319426    2.90930860980421
C        10.77854610475451    7.22894864788283    2.59924516097460
C        11.17147085043347    6.25360408654646    1.69974128184633
C        10.23298084164638    5.42865444152172    1.10213698503282
C         8.88954448281911    5.58241051408736    1.40497370327588
C         8.49814431118370    6.55707699091874    2.30168504684636
C         7.34939668189380   11.73989405568743    2.27686217364217
C         6.85440372217987    9.32822980914343    0.95336317067415
C         4.71896967267429   10.82404600174152    1.99689116376690
C         4.42041666493765    6.84637971493601    2.39862066989024
C         3.55519408782488    7.69536608778429    4.88649427227135
C         5.60114584908190    5.75454711774144    4.65373459241524
C         5.79703746969547   12.66774961108197    5.44402781268317
C         7.61795206516368   11.22310433323260    6.92158509119382
C         4.81759054217148   10.60757452397823    6.98939280564868
Co        6.60668420264150    9.15704255326486    4.39009905208331
O         6.76153251773327    8.31520827404783    6.14382795848136
P         8.77580166536291    8.57254740057558    4.14073084601976
P         6.37579070388123   10.19829290189684    2.49909014736105
P         5.14540700364787    7.41403838720003    4.00582875620798
P         6.19545973367593   10.89497011145677    5.80798337729479
H        10.91505621871068    6.86186049949721    5.24575281456185
H         9.17732175500219    5.69825030162154    8.93043601027116
H        11.21075934369462    4.72486017212986    8.32760046464709
H        12.22161667498060    6.04341952139299    7.73051570622240
H        11.70953739761660    4.76630388960899    6.63089612788456
H         7.94846798605065    6.36431242825290   10.55971693614213
H         7.15088490982790    5.05071869370218    9.67384829424133
H         6.20726484297168    6.15290774613797   10.67219272093982
H         4.66988985550997    6.83740978507519    8.92378896015386
H         5.44730603866524    5.60471996079622    7.92590728747671
H         5.28370747381151    7.25572597494846    7.31737702081817
H         7.74234823206790    8.71973292280262    9.79416238475534
H         6.00752933487416    8.56537184528180   10.09852831577000
H         6.58390834867646    9.15286031074278    8.53544443472716
H        10.20424840940124   10.05804538022681    2.11572353609390
H        11.94022869459325   11.80622060028013    2.20871693307703
H        12.89252257095322   12.48559094704410    4.38180315516157
H        12.10066560849275   11.41423691995406    6.45934670770753
H        10.36208545437531    9.66781116201056    6.36447982756806
H        11.52181983817372    7.86932741455591    3.05308921169807
H        12.21991951261220    6.13445659240926    1.46464747821505
H        10.54823198922844    4.66934182248148    0.40109206743377
H         8.15312147007654    4.94237550386574    0.93857756016895
H         7.45396719428078    6.70465722695936    2.54945198437667
H         6.90654078761230   12.52928111643360    2.87818598957920
H         7.35521014700199   12.04197911916140    1.22974532255960
H         8.36919547322027   11.57282546829456    2.61829414153356
H         6.25524376118837    8.42844266044917    0.83926059839633
H         7.90156453600255    9.03826295432352    1.02378244115763
H         6.70732927527813    9.97540700089765    0.08877847669969
H         4.32736946950908   11.46102488030489    2.78752829048089
H         4.03958042775100    9.98479849643705    1.86441353218950
H         4.78523637513398   11.39105200686569    1.06881303430752
H         3.92387297690638    7.67449982468749    1.89806000143408
H         3.69507135415424    6.05364991928037    2.57652341467686
H         5.20352752299811    6.46476970679710    1.74653548726810
H         3.06574627075946    8.56343889365086    4.44774970520798
H         3.75634263007613    7.90638116247970    5.93184596927939
H         2.90437326558307    6.82518874492706    4.80444903463739
H         6.27658960310213    5.26834022906405    3.95193336398927
H         4.70915670352943    5.14216112294321    4.78386453314083
H         6.11812067408524    5.85830519867760    5.60194779178812
H         6.64934698272060   13.14975845965787    4.97096284202974
H         5.56695384544035   13.19512294376635    6.36890643219062
H         4.93903105933854   12.73495204977395    4.77839892618615
H         8.39474147275917   11.71619432673413    6.33744852038289
H         8.01844000833634   10.28722397669379    7.29811561227460
H         7.32106042252244   11.86339392721631    7.75226042620430
H         3.87960758547667   10.78063673719362    6.46327218527494
H         4.88992518026220   11.28717626570878    7.83838258208843
H         4.84010894541651    9.57991819667025    7.33373772884171

