77
CSD_code = SIPQEN | q = 0 | S = 0 | Stoichiometry = C30H44P2Pt | MND = 4
Pt        9.62377584526015   -4.55935688688506   -0.24556479647634
P         8.27135769914566   -6.33186776433290    0.22463250472605
P        10.69534836551852   -2.66754073489509   -0.96066686286340
C        10.67569647119831   -5.63432046775526   -1.68581917774595
C        10.43099635209132   -5.56197161173169   -3.05838386318380
C        11.16858352882586   -6.27951303766739   -3.98574130178700
C        12.19822477367658   -7.10059606439862   -3.56112008262611
C        12.45694596085449   -7.21423835934285   -2.20896564961875
C        11.70635821429743   -6.50041739212997   -1.27691270667194
C        11.99135262807591   -6.69509399902168    0.15662192489602
C        12.25146740354016   -7.97338818406177    0.65330893252584
C        12.53866298576336   -8.17483424815990    1.98975734274737
C        12.58554448373527   -7.10013027998064    2.86239277172599
C        12.32963303012154   -5.82574214169081    2.38575065722321
C        12.02214250702559   -5.62362518068755    1.05027763599254
C         8.71598502524919   -7.96771378895760   -0.51261848228337
C         7.70190651980904   -9.09349637427199   -0.35873248367825
C         7.80610794744192   -6.75459218231469    1.95980537180337
C         8.95393217535469   -7.37250076495884    2.74574077070208
C         6.60348848185161   -5.97698233800587   -0.47027221065712
C         6.69947149501016   -5.69869634598568   -1.96431004681725
C         9.93302440326628   -1.96750279152514   -2.48632266137523
C         8.41699614915708   -1.91931974209402   -2.36141574829406
C        10.71830724153014   -1.17877591296001    0.13506706610858
C        11.55125861424504   -1.39486301448790    1.39099842191512
C        12.46354022619718   -2.84247827584474   -1.48650287983345
C        13.12422627811503   -1.61081690692354   -2.09303569237722
C         8.62237845572487   -3.54364092480529    1.27112292796457
C         9.12083934808265   -3.65194452512252    2.57364150027412
C         8.53493899104411   -3.00514130832609    3.64865657938241
C         7.41035181175290   -2.22165472133041    3.45821915940526
C         6.88179994730142   -2.10486993467506    2.18552070830182
C         7.47889427227441   -2.75602265266678    1.11761990566254
H         9.63096945694025   -4.92882608292938   -3.42803000241141
H        10.94409834112251   -6.19277334382416   -5.04114359459305
H        12.79226008114406   -7.65069016419234   -4.27789339883885
H        13.26653010566216   -7.84811479894211   -1.87081197683649
H        12.21811462583835   -8.82055186234616   -0.01829643102862
H        12.73127044014337   -9.17427631839171    2.35403819648194
H        12.82083313245485   -7.25543915063738    3.90522860364737
H        12.38010029845451   -4.98111361051208    3.05954580376932
H        11.87549723301807   -4.60893397386876    0.68714000370291
H         8.91809831863406   -7.77989410802373   -1.57087104973678
H         9.66856523857276   -8.25363024595615   -0.05900576003367
H         8.09037620934890   -9.99778255440225   -0.82460219292151
H         6.75971294966894   -8.84822209429762   -0.84294153168026
H         7.50713854999505   -9.31381264352142    0.68800619173137
H         7.49581735228589   -5.81797409285450    2.43103138726015
H         6.94214476263164   -7.42514483210491    1.93966591949642
H         8.67458826969126   -7.49717307693110    3.79052726207575
H         9.83008785183987   -6.73099750896396    2.69743333534891
H         9.22830868387610   -8.34670746484036    2.34677307817290
H         5.91635221840640   -6.80028790571387   -0.25986314495784
H         6.23977881790297   -5.08989095751165    0.05589122488460
H         5.77632348773306   -5.26467613497717   -2.34418038382599
H         6.90644880819007   -6.61057674503806   -2.52021512901472
H         7.51934892601709   -5.00136006461703   -2.14316871760157
H        10.33531097297994   -0.96956312618971   -2.67848352021890
H        10.22203154871075   -2.62324447675478   -3.31184603098796
H         7.95181507607604   -1.69035554246664   -3.31883014610462
H         8.11313934595007   -1.16371800434699   -1.64044683582587
H         8.05550665435420   -2.88817625623437   -2.01427306979043
H        11.07990216858346   -0.31556104139759   -0.43080449553213
H         9.67938648622864   -0.99181760650293    0.41995940751471
H        11.48101515511167   -0.52765690538518    2.04527281856623
H        12.59996234487923   -1.55567298216854    1.14830229314720
H        11.17855349898728   -2.26016231294632    1.93504535710436
H        13.03543790448460   -3.17135044594405   -0.61436133807458
H        12.47789958531714   -3.66857037066755   -2.20390307742991
H        14.15712550479594   -1.84359861218495   -2.34689936000973
H        13.13161948533877   -0.77752334832860   -1.39448063470993
H        12.61976403430421   -1.29910568798337   -3.00373854104126
H         9.99063567837111   -4.27295729233888    2.76309105034943
H         8.95552263015933   -3.11493264831383    4.64044616728356
H         6.94809143961316   -1.71282658033979    4.29315239352434
H         5.99704838018754   -1.50197139631581    2.02194419280449
H         7.02843031314449   -2.63963676965955    0.13814614163799

