85
CSD_code = SIPQIR | q = 0 | S = 0 | Stoichiometry = C36H46P2Pt | MND = 4
Pt       11.33209110712701    3.17142915968337    3.52442447375660
P        11.04775176859903    2.90397149238008    1.27243180382137
P        12.04947454294509    3.32770856929760    5.68416360588305
C        10.84290644505171    5.19336141828577    3.47634772315243
C        11.66349211249412    6.18955684010001    2.94367780430866
C        11.31609030550985    7.53043985055947    2.95749354084568
C        10.11204345769057    7.92699453584426    3.51178563136384
C         9.27954937278448    6.97342155524983    4.06378008959715
C         9.63548115854562    5.62655781112837    4.05438722443497
C         8.72932704692159    4.65204529510603    4.68657107331041
C         8.11068927872973    4.93791709355756    5.90410679631636
C         7.24751947324803    4.03317170929190    6.49211538025147
C         6.97383343591371    2.82556249053938    5.87069841197399
C         7.57455605401068    2.53065859821243    4.65847819289082
C         8.45299867677989    3.42878780567248    4.07497672018078
C        10.12593123206554    4.24447569649539    0.38873868446065
C         9.94667842656581    4.09496398888032   -1.11613641356269
C        12.62412068982989    2.74732239446077    0.32623773103270
C        13.49011760197618    3.99738066413104    0.37013816835890
C        10.25498954763168    1.34824157383297    0.66108485699925
C         8.82683946140612    1.13770782284039    1.14212840597092
C        11.72960173653577    1.13528655871676    3.65160485339284
C        10.69352166285294    0.28638691534867    4.13912403935977
C        10.79536876690010   -1.08234280877995    4.25478980653440
C        11.96630516342183   -1.77993575425552    3.89932227798725
C        12.97758926426290   -0.99342842560157    3.44411831094848
C        14.37523445089167   -0.92588402804645    2.93325130512831
C        15.50652055708108   -1.60604364464933    2.60409393255446
C        16.57495401951992   -0.81562458685476    2.13375524286838
C        16.47364467439680    0.55145997469749    2.01678013515561
C        15.29860584724009    1.25224510816567    2.35733101388157
C        14.26584806943102    0.48954761305481    2.81241491432347
C        12.85661324938500    0.42469243985694    3.32507097067852
C        11.64526759682334    2.04052169666209    6.94242564827479
C        10.19674924579075    2.10349266755356    7.40562483277033
C        11.78231159821947    4.91925472841027    6.58572124797106
C        12.44347951919809    5.06500157355805    7.94988333178457
C        13.88012726077885    3.15451491333219    5.61676773546256
C        14.43309401076185    4.07262722848248    4.53644358375267
H        12.61535555550870    5.92159436958022    2.49945460878624
H        11.98530525714458    8.26667417062063    2.53102992894222
H         9.82599326492646    8.96969813463881    3.51528359115896
H         8.33048018900601    7.27179930858545    4.49014654655168
H         8.31547434065257    5.87870957030791    6.39702534057619
H         6.78200650051080    4.26990401980088    7.43854916446694
H         6.29235231431988    2.12196168732970    6.32643466932335
H         7.34385319385648    1.59851826788972    4.16048428742307
H         8.86657856249031    3.21922787720829    3.09165123027089
H         9.14971890304114    4.32839416509400    0.87599854395949
H        10.66055745006667    5.17051307151926    0.61864814717323
H         9.43357998208258    4.97132533857564   -1.50874508135913
H         9.34767196478010    3.22101195507997   -1.36054462294397
H        10.90464408188885    4.01334262503446   -1.62384336644428
H        13.16200395755301    1.90805034093867    0.77615711414387
H        12.39069324240701    2.47905502600324   -0.70816761431834
H        14.44057291055549    3.81684990978541   -0.12973018389517
H        13.69098160263313    4.27485462648446    1.40222507097718
H        12.99861937219636    4.83503295206419   -0.12026447565806
H        10.29263119581017    1.35366665233329   -0.43195781049844
H        10.88461121736145    0.52684487219480    1.01487494412817
H         8.41278511897115    0.23242689685474    0.70064003121760
H         8.18766007940768    1.97459317464683    0.86577598305882
H         8.81187810441545    1.02349958903910    2.22229984795303
H         9.76252995116658    0.74615476534116    4.45442145423897
H         9.95181784242342   -1.64394632246613    4.63532727477554
H        12.02992003486971   -2.85447099747558    3.99682935635629
H        15.60824334056072   -2.67820876677043    2.68984383293528
H        17.50002948917770   -1.30254379237260    1.85846870758100
H        17.32249156664100    1.11279969642610    1.65101536840487
H        15.25545332119350    2.32517467482832    2.25288657602611
H        11.84116217814446    1.07517180626505    6.46748361717326
H        12.33288443805312    2.14630534931781    7.78654300824707
H         9.96876931674970    1.26113834845476    8.05647479959088
H         9.52715141079855    2.06902077950896    6.54976339172611
H         9.99551152491858    3.02229782612001    7.95208781319868
H        12.12246580723562    5.71108782285934    5.91229581738357
H        10.69937805772454    5.03325556672540    6.67885435417625
H        12.19459438743157    6.03801161836235    8.37038626394535
H        13.52652118118606    5.00253009357542    7.87621564689344
H        12.09830966633779    4.30255287039270    8.64379040479735
H        14.32957240900407    3.35870375264005    6.59138571418408
H        14.08651719624424    2.11262318603195    5.35576474444595
H        15.48930424874547    3.87970406761538    4.35797437524983
H        14.31140547531505    5.11897002182417    4.81012601055033
H        13.87094090517835    3.88757049599022    3.61598248494757

