97
CSD_code = SIPXUK | q = 0 | S = 0 | Stoichiometry = C44H44N2O4P2Pt | MND = 4
Pt       15.27091408385966    8.89527958135243    5.24481605922338
P        16.22058129128149   10.20042491470303    6.86512759798856
P        14.59143411156078    7.04817448555930    6.40928135532808
O        14.55610391333200    7.95384257542199    3.55151247631955
O        14.23645699558736    8.34338689343038    1.33614239544818
O        16.25821795152360   12.28270693699525    3.04372369268370
O        16.38324487448912   11.83402931998170    5.26005519653632
N        15.52899608829049   10.30665344448527    3.87084950807075
N        15.14968493402096    9.95414845251451    2.59406883033775
C        16.58156151324733   14.43187554849014    2.11096485253393
C        18.40604635610333   13.32494072211207    3.46615441983348
C        16.90256492440300   13.53218294047013    3.29651042606379
C        16.07090797613304   11.48181426269895    4.09833040226309
C        14.66841405068512    8.76225057771039    2.54269422343480
C        13.80293802888905    6.98886452619012    1.24006641180368
C        12.91066546317163    6.90168347450152    0.00891729107680
C        15.00675949130335    6.05444594995675    1.13193971887163
C        17.99107046326630   10.50078260057143    6.56378590604717
C        18.74260574160968   11.48723947257615    7.18595620926842
C        20.07831175310487   11.64354803467632    6.85712196048339
C        20.66948792631789   10.81999540376361    5.91285035756845
C        19.91929370896407    9.83848497332873    5.28441828603310
C        18.58510988670033    9.68068938721293    5.60933658993371
C        16.38403629207196    9.27491107483935    8.47180045697738
C        17.58002225090771    8.70796041017316    8.89978068036876
C        17.64773961085445    8.00797979887723   10.09152868190963
C        16.52071046259160    7.86622515975916   10.88111351698887
C        15.32777353271277    8.44227048878721   10.47744668638536
C        15.26215606336305    9.13742968484402    9.28489306314501
C        15.26042230894302   11.57786691721541    7.56660262729059
C        14.07908864926789   11.92465044818461    6.92248256155711
C        13.27275821014544   12.92326422263733    7.43287381818261
C        13.64576419465979   13.58567029249571    8.59205200770633
C        14.81680229194944   13.23560335748495    9.24281137854255
C        15.61899391090588   12.22507671517955    8.74094116886587
C        13.25276778934589    7.53283620185895    7.54301082371286
C        12.48989429200894    8.60776057187749    7.08553893213775
C        11.44868750072593    9.10455455716089    7.84456164400077
C        11.16044700953548    8.52874112908241    9.07272549427755
C        11.91934474226863    7.46678988234653    9.53465797300444
C        12.96676343955756    6.96815412202442    8.77765638729693
C        13.74922944946062    5.85133364413964    5.32030368260722
C        12.38359847350224    5.90470988096278    5.06866953068711
C        11.80855100494736    5.01741911835811    4.17580702253208
C        12.58794035445427    4.07316236419386    3.52925639462480
C        13.95068478214305    4.01913869684916    3.77423045689435
C        14.53037653722327    4.90679403037190    4.65985071735497
C        15.70810391252239    5.92032867293391    7.29842757227744
C        15.26483245544086    4.74500696413440    7.89809521363255
C        16.16991052730009    3.91245296122615    8.52969680635016
C        17.51930808038095    4.23077256081837    8.54458061609980
C        17.96978316391429    5.37397883561757    7.90690361034765
C        17.06535627759711    6.21469275038099    7.28406541753864
H        15.50566298611681   14.53598806051648    2.00208786110171
H        16.97798921673811   13.99027576512630    1.20080532018041
H        17.02381160206662   15.41324132598869    2.25848480324874
H        18.59733011907028   12.68830545177008    4.32677242829359
H        18.89766782872892   14.28180662305858    3.61999376720024
H        18.81470577864273   12.85008316795394    2.57710994749774
H        16.48994212545135   13.95360175852509    4.22381517714135
H        13.22737541521747    6.73116407017277    2.14065200848735
H        12.07635002280453    7.59145179956363    0.10350212623434
H        12.52869179048134    5.89014123895060   -0.09966444633735
H        13.48078649204233    7.16986971167850   -0.87653520580185
H        15.60992784891404    6.12524356554295    2.03382868692110
H        15.61536860032698    6.33732346804388    0.27577425801459
H        14.67122062021478    5.02744099041011    1.01440871475171
H        18.27924147503026   12.14588951572580    7.90368919964272
H        20.66031362219559   12.41849545901896    7.33500093836821
H        21.71089716367819   10.95046120590464    5.65758470860979
H        20.37378702683607    9.20459273436454    4.53678015701511
H        17.97320218691933    8.93314991820029    5.10475156626153
H        18.47283495957364    8.82123681962457    8.30125870280647
H        18.58609497157760    7.57433594647536   10.40613998598245
H        16.57387486492608    7.32017031025780   11.81152756162355
H        14.44619153143714    8.35492635012351   11.09598912507244
H        14.33288943500712    9.60155584867951    8.98506828138546
H        13.81772834524062   11.40637883305124    6.00680782822541
H        12.35563519370173   13.19154515925299    6.92832452077231
H        13.02106260232389   14.37184942482785    8.99061330144245
H        15.10337560379299   13.74746208539507   10.15037969875240
H        16.51330478086579   11.93008977657307    9.27159687662868
H        12.74184699266194    9.05380948202084    6.12447789899177
H        10.86737462136535    9.94174442004324    7.48766928044962
H        10.34985445292548    8.91463754415418    9.67296264776656
H        11.69890217203882    7.02592456841117   10.49614011279970
H        13.57256721840118    6.16290976814562    9.16354483308969
H        11.76897552775790    6.64171458247151    5.56610542898261
H        10.74697988415686    5.06725494888362    3.98056109445764
H        12.13536688878115    3.38456357330258    2.83089832070052
H        14.56337417249325    3.28727490751789    3.26810293005698
H        15.59675088719127    4.87714105407128    4.84083744175239
H        14.21974357162501    4.47244287252087    7.84607091187731
H        15.82484069387852    3.00473050240663    9.00311128567498
H        18.22073277959113    3.57454841962234    9.03827590818877
H        19.02383361160977    5.60812276984901    7.89183821629260
H        17.39617321686992    7.10652420842536    6.76616667899025

