105
CSD_code = SIQCEC | q = 0 | S = 0 | Stoichiometry = C40H48N8NiO8 | MND = 6
Ni        4.43551227329628   -0.00043756734140    6.06936508331553
O         4.25563173283664    1.77980016736050    6.72295930116670
O         4.35886697198069    0.62013442827113    4.28122662243975
O         0.88879409571948    0.63136636794838   10.16944793573769
O         0.88838833467495    4.61605388498712    7.85520660772219
N         2.04610460169529   -0.12449185063973    6.27878087249898
N         0.57448650650999    2.26441802459617    6.33639567670599
N         0.83439807031333    1.86034403464516    9.89208044255947
N         0.81567694905534    3.76719175675602    8.78018884593064
C         0.76829698888888    1.60839542285164    5.17945866407690
C         0.52267400794279    2.86887066947771   10.92968608120788
C         0.87481260906188    4.18345007399792   10.20152831049428
C         0.43127354975654    1.46169888278137    2.80658948023365
H         0.02780250532968    1.85918230893785    1.88624697947665
C         0.24131449379990    2.13296856096063    3.98218725224003
H        -0.30267635781484    3.06268543813810    4.03305275132963
C         1.50792176716996    0.39317589394095    5.14191254434315
C         1.05488513217445    1.71399919218296    7.42857096990525
C         0.88496243649752    2.43216406403609    8.68207172827261
C        -0.07959866195956    5.34975898922916   10.42441540550897
H        -1.10276755110291    5.08713284244957   10.17542802615336
H         0.22082052689948    6.16880346744832    9.77522298848480
H        -0.03467750144854    5.68121754433500   11.45800111642663
C         1.68488021430851   -0.27541103544448    3.91623675572817
H         2.26167548341748   -1.18745552546811    3.91884721447859
C         1.77552648417103    0.49268292656794    7.40323717550401
H         2.14575386282892    0.05344713747234    8.31818748076561
C         4.08143842825521    2.83871828140725    6.06172793455941
C        -0.97195301748713    2.70877637006987   11.23177224523220
H        -1.14828227592794    1.68531051193386   11.55679838607940
H        -1.57280636899634    2.88918584755470   10.34321653504527
H        -1.28230145166579    3.38524694453598   12.02254696252931
C         1.32611891126802    2.56451199242339   12.18811531208840
H         2.39406925367491    2.56557257578893   11.99460307154710
H         1.05274876705606    1.57246200704485   12.53964833742000
H         1.09984322056910    3.29059598232175   12.96362346813370
C         1.14972727935579    0.25344812886577    2.77331477940887
H         1.27972981413889   -0.25464419624564    1.82861489060268
C         4.25292960524061    1.80473613682982    3.86490018436078
C         4.07613707761981    2.92930019425977    4.66803956038634
H         3.94618027409041    3.89416871184713    4.20816955446049
C         3.86622819015901    4.10771833146991    6.85038843509215
H         4.23302332562305    3.97521081412241    7.86526497076096
H         2.79782317566307    4.33479036133347    6.88643562230018
H         4.37444456549574    4.94375207684013    6.37921624254997
C         4.30134930781707    1.99328327810418    2.36425141975235
H         4.97052887886177    1.25627607126098    1.92735412812706
H         4.63400923393901    2.99376561481099    2.10759688366594
H         3.30344198528796    1.83541229103171    1.95765881207713
C         2.31449087813347    4.65427111281896   10.43832800231937
H         2.52976146770710    5.46232162999270    9.74199350964124
H         3.02285295631241    3.84969588548541   10.25379357807305
H         2.44101503955113    5.02239343361514   11.45220190302547
O         4.61565445229538   -1.78063224243567    5.41567718953251
O         4.51276384875756   -0.62101589158776    7.85755547647203
O         7.98109374630517   -0.63038255657296    1.96879211743205
O         7.98394781074058   -4.61573095537586    4.28186443012360
N         6.82504900223411    0.12403013950103    5.86002973037799
N         8.29688469993213   -2.26474011677454    5.80139781980395
N         8.03626277078331   -1.85941148914522    2.24582396751044
N         8.05607391118909   -3.76656722522923    3.35713715295704
C         8.10307117903804   -1.60918617345785    6.95859362728468
C         8.34840613331612   -2.86746827499699    1.20790755707077
C         7.99681795834643   -4.18240661056205    1.93568314613625
C         8.44034431912832   -1.46333241894438    9.33147974367473
H         8.84382418314566   -1.86120270153150   10.25165702248000
C         8.63023925167584   -2.13415189423146    8.15561457219026
H         9.17423506730965   -3.06384613917746    8.10433634943235
C         7.36333345005280   -0.39404727043677    6.99666665676613
C         7.81639262434036   -1.71392053282911    4.70945537089410
C         7.98625891835304   -2.43160083530844    3.45568318907532
C         8.95156927081795   -5.34832467624872    1.71223441675754
H         9.97468641225088   -5.08541608114199    1.96114517720258
H         8.65153333391238   -6.16765553145546    2.36124308351746
H         8.90660040583384   -5.67949433692050    0.67855327549836
C         7.18648694392253    0.27407856042382    8.22260641030299
H         6.60964424306268    1.18609330401011    8.22040536188921
C         7.09568533152818   -0.49266133233996    4.73531755583822
H         6.72531264945178   -0.05317175293122    3.82055180646297
C         4.79009232278299   -2.83957960450026    6.07681391852955
C         9.84296502553163   -2.70661085361888    0.90588359559518
H        10.01892846153897   -1.68298328382540    0.58115976758973
H        10.44384023509168   -2.88706114645972    1.79441161658498
H        10.15360251938254   -3.38274093600732    0.11493668394625
C         7.54487229180820   -2.56302010831934   -0.05043486008032
H         6.47693517374193   -2.56450832548266    0.14310361885472
H         7.81787383448684   -1.57079010916156   -0.40175707312943
H         7.77138133657786   -3.28884739118853   -0.82610509247226
C         7.72178351850748   -0.25516208929241    9.36528022882366
H         7.59163249364540    0.25244666421460   10.31020909673403
C         4.61969607927742   -1.80555142486220    8.27373212785549
C         4.79624467581989   -2.93011044438192    7.47048928284502
H         4.92668246101842   -3.89489319835755    7.93040473242069
C         5.00631113858288   -4.10831925217308    5.28800990707290
H         4.63936463670032   -3.97588067670637    4.27318651556501
H         6.07484426852108   -4.33480389032608    5.25181963087247
H         4.49859450437762   -4.94467939990333    5.75912102635972
C         4.57123056397696   -1.99470639733148    9.77430811629225
H         3.91096100555332   -1.25082005284139   10.21302551834574
H         4.22797440519692   -2.99176299300238   10.03048636066710
H         5.57156817314262   -1.84865291415967   10.17927206289536
C         6.55725294514162   -4.65359866400686    1.69897421265785
H         6.34231007513373   -5.46191099954969    2.39511025969945
H         5.84870342418796   -3.84926356824099    1.88383549038881
H         6.43069446493011   -5.02145039485802    0.68500400647361

