70
CSD_code = SIQDOL | q = 1 | S = 0 | Stoichiometry = C23H35N4NiO7(1+) | MND = 6
Ni        4.24692009873045   -0.03470832988971    2.41558676392333
N         5.30820391999528   -0.72489446298854    4.17670566600226
N         3.12480095956430    0.30400591898740    0.63108588162107
N         2.65689222573645   -0.36606352201337    3.42222683469695
O         7.36995440131080   -2.23970491440426    1.59136367261247
O         3.36145700905680   -1.87113189934683   -1.45744906397146
O         5.70403090895309   -3.04330579017927   -0.82331074422015
C         6.78624514297486   -3.71136671263961   -0.20710617890255
C         7.76735112305215   -2.65559727092963    0.29561378451567
C         8.04981815724949   -1.19419783948400    2.17363939140384
C         9.08489416212279   -0.50228525932449    1.55819090570536
C         9.70122580755108    0.55675207548247    2.20230719979911
C         9.30649574310277    0.93287488154054    3.47177516733567
C         8.29023195643106    0.23319005927375    4.09527090196640
C         7.65404736765660   -0.82833379414391    3.46653278511793
C         6.53651272384766   -1.53829860422577    4.18165221270234
C         4.25410388164309   -1.33026636783786    4.99400239433390
C         3.00800519184060   -0.47173755196748    4.84804810656735
C         4.63925167183781   -3.88724074373645   -1.20613153543899
C         3.69977084910603   -3.08627104655367   -2.10573862626331
C         2.90571593597692   -0.85115495307338   -2.26553316533819
C         2.22295096473243   -1.06920683153057   -3.45542551273038
C         1.76896801958049    0.00319687571805   -4.20436692697619
C         1.99326823493269    1.29946848284953   -3.77916263813990
C         2.67723377975216    1.51940270063143   -2.59622082543423
C         3.14395475768451    0.46023538971954   -1.83255431114339
C         3.91206444658118    0.69430507461669   -0.55813879926430
C         1.95176739407653    1.16899269018217    0.79769486664720
C         0.98776689696728    0.60863275818997    1.83644252676450
C         1.57312647723057    0.60873361980316    3.24396625130976
H         5.55109076242884    0.18330950423239    4.58824163140708
H         2.78694718681868   -0.64250899941869    0.42378384662697
H         2.32425784836466   -1.28465310557927    3.11428198208204
O         4.54331760391147   -2.16907131519550    1.55805416220139
H         4.47936467225374   -2.15439196659857    0.59147201540974
H         5.50329952076101   -2.24394267292128    1.70511201901694
N         5.93665799390300    1.70407022305784    2.06925079329751
O         5.80020369214088    0.53745180217713    1.57675821115126
O         5.08268118595595    2.02299077598290    2.90467346231473
O         6.83480224927870    2.40310308308585    1.72065727041171
H         6.43487655228894   -4.32753720244307    0.63204507612469
H         7.28554162920861   -4.36438676901926   -0.93472572640815
H         7.74196368441407   -1.81082342945021   -0.40148662715313
H         8.77908344004846   -3.07428426691351    0.33452896979245
H         9.41813977031038   -0.77116759312669    0.56993546073684
H        10.49364454224660    1.08900085887336    1.70123306183800
H         9.78314595206939    1.76016660293100    3.97128877422508
H         7.98739619507025    0.51050199174927    5.09550675819816
H         6.83872235365613   -1.72464857583767    5.22250265568467
H         6.32448603009603   -2.49763126401263    3.70834128240446
H         4.06590082046168   -2.33879645784542    4.61347358279918
H         4.54762242998678   -1.40572865799182    6.04949405103207
H         3.21369390233400    0.53733999206516    5.21906148294835
H         2.17518466943088   -0.88992995873175    5.42604109018618
H         5.00841262507367   -4.75295933156375   -1.77094576166465
H         4.10676609630546   -4.25365274124063   -0.31594084155592
H         2.80360986828043   -3.68649788808024   -2.30610725732256
H         4.20749357295421   -2.86355944060876   -3.05031005106569
H         2.03513522594087   -2.07269718628005   -3.80200192716529
H         1.23861902008861   -0.18244688147477   -5.12501559127569
H         1.64359185036306    2.13407045379844   -4.36510886009502
H         2.87060391866150    2.52950212120213   -2.26680819891182
H         4.18487101851886    1.74796696004284   -0.47173155462631
H         4.82431460504667    0.09202104290253   -0.57400991928506
H         2.29555228068982    2.16151320072043    1.10472729811965
H         1.42388590633522    1.26807114911748   -0.15958976557359
H         0.08931975461091    1.22584079907179    1.84195941666379
H         0.69037013388198   -0.40547932695008    1.55570232693474
H         0.77039469207108    0.39182208251744    3.96078358129011
H         1.97530453445679    1.60072775503946    3.47380483399977

