48
CSD_code = SIQDAZ | q = 0 | S = 0 | Stoichiometry = C14H19B10CoO2Se2 | MND = 8
B         7.25119835620422    3.43766856470262    5.32655277902639
B         6.61140262957787    2.76395606228481    6.81052790786419
H         7.25770832164564    1.98716987353770    7.40620447969047
B         5.79483917373293    4.06499281685703    7.71125513903343
H         5.91877417421272    4.10674698391859    8.87689860662694
B         5.91292036229286    5.56747016864211    6.79483844141911
H         6.19575767666216    6.61025579543964    7.25166128529392
B         5.09323400742044    5.34459092371700    5.25062246476512
H         4.74890608463155    6.30225245017781    4.66188553878995
B         5.90204573657097    4.04351829059820    4.35604881902368
H         6.08725642077767    4.18745535536764    3.20192953412411
B         5.75762934906164    2.52287968452077    5.26087857165424
H         5.70879411879449    1.47757458178575    4.72848464227048
B         4.84512751973608    2.90597736710544    6.75400982017076
H         4.15265316848653    2.11264912439185    7.27358821361114
B         4.41727837103017    4.65206289803510    6.74048373201506
H         3.43668499435700    5.06151232842552    7.23888277168123
B         4.40259852155438    3.70336137560404    5.21943609407313
H         3.40405425361812    3.47088629774068    4.64692060481505
C         7.17382250809004    4.38142001766659    6.76932494235802
C         6.76651772611584    5.08803954486209    5.40332648183124
C         8.73014079335064    3.31579167950545    4.70001014381337
H         9.41084544958710    2.79038411528226    5.38025154003308
H         8.72702543940820    2.73184205556868    3.77331768601248
C         9.30494837032290    4.69033543018548    4.39977000207706
C        10.14771933471953    4.94999717475445    3.23948099993255
C        11.13403953114799    3.96215771799096    2.82846077551621
C        11.97305555875815    3.97850581381280    1.73678168603037
H        12.01113250138936    4.74327173064740    0.98886671142308
C        12.74328337294429    2.80336594767112    1.81721742338100
H        13.50212924267505    2.47957784574821    1.13533609436957
C        12.32569489299555    2.16001343627464    2.94729106701327
H        12.63455206219541    1.23731154478739    3.39849306149084
C        11.97329801311677    5.85954973095632    6.44954470498445
H        12.53209834420015    5.03751016130875    6.86946692897648
C        12.01294819396213    6.29761123841672    5.11012677219609
H        12.58127692696488    5.85078589211424    4.31107123303908
C        11.26269814294985    7.48906176538328    5.01740332866625
H        11.14449221064073    8.08088963603616    4.12416975987739
C        10.80356158485762    7.83234526531752    6.31252636465110
H        10.30262354229582    8.74727270078278    6.58555472938001
C        11.24480264874752    6.83200184585177    7.19956673147320
H        11.14524770390564    6.84387211549044    8.27525260671758
Co        9.98870355926880    5.92690576628141    5.80026738391804
O        10.01240235131291    6.01413512780920    2.62374943567730
O        11.35973692673856    2.84632542443108    3.56071703531673
Se        8.89023042063326    4.87835852299486    7.61038819266659
Se        8.11510940633527    6.19607980921483    4.51635673123613

