57
CSD_code = SIQGUX | q = 0 | S = 0 | Stoichiometry = C17H28CoN9O2 | MND = 6
Co       12.45312006683574    0.43124519717994   13.72131507008754
O        14.13927627083662   -0.28769500048934   13.28392291888843
O        15.85038585595604   -1.86717422254251   12.12259282695935
N        13.00207382642390    0.73172584183789   15.49518039554690
N        13.06696686154881    2.39864846705652   13.27988994128645
H        12.18343719893488    2.80004128441810   12.96125268801132
N        12.07106823570929    0.06926611127087   11.55382408932032
N        11.79905923406796   -1.22995693676260   14.17793957926803
N        12.31292001490483   -2.17228540482804   14.64563812936583
N        12.66580846344760   -3.15893494138852   15.08279905847882
N        10.75593846028828    1.17415140023218   13.90328961545967
N         9.73944262691771    0.82639178362326   14.37126352637865
N         8.69578168280828    0.64605473330520   14.77816704865833
C        14.93306034724097   -0.92143490727157   14.06000896544800
C        15.91506650839299   -1.79570345177897   13.48813607032595
C        16.79053768822343   -2.47624501813720   14.29330059653711
H        17.51735783594327   -3.15210837050958   13.86997159284457
C        16.75257094187505   -2.31652881459844   15.68746123892709
H        17.45403850074848   -2.86770396394127   16.29399584107166
C        15.83882905900764   -1.48422574824975   16.26506174677380
H        15.80053437429057   -1.36742167981902   17.33801821537211
C        14.91080909603731   -0.77864437462101   15.47176569579674
C        16.66858044737988   -2.80542272453045   11.45897336349120
H        16.48859717158984   -3.81223646757643   11.86032434187496
H        17.72912546301538   -2.55401022087421   11.60601885370054
C        16.31802767298165   -2.75801715590014    9.97941253305599
H        15.26973316756787   -3.00806298320754    9.83962435360743
H        16.93017851985515   -3.46852927334490    9.43144549697627
H        16.49273191578674   -1.75938759969088    9.58742286595122
C        13.98944365516194    0.11794049077041   16.06580512694250
H        14.16926364860637    0.32704583836459   17.12274163415805
C        12.32930436563138    1.75817710025425   16.26157662936482
H        12.80344023462873    1.84447306589344   17.24695550599217
H        11.28683697126539    1.46857092704945   16.41529582623693
C        12.38845051133461    3.12276085710007   15.54060691957544
H        11.42432830688817    3.33233127269082   15.07647657532507
H        12.58567352853069    3.90365965140414   16.27585804493870
C        13.46514117084977    3.17434010480133   14.45798683687575
H        13.63187698425498    4.22498410006407   14.17185130328525
H        14.41165226802659    2.77808198253642   14.83767379861852
C        14.03077064760117    2.53080564675417   12.19064057390217
H        14.89827544704762    1.90543184099248   12.41554854516040
H        14.36923098518320    3.57677557731204   12.11346026436059
C        13.42704456255709    2.11251749183435   10.85523036956899
H        12.51262658911286    2.68199721536514   10.67270907439816
H        14.13609488198494    2.37865340490507   10.06785651362428
C        13.16822895928584    0.61265319472193   10.73622066631386
H        14.07831574676136    0.08483598326053   11.02770409981974
H        12.96009729054632    0.38545751668322    9.67779548931524
C        12.07512067327492   -1.38084393638832   11.32539773818509
H        11.26431896386469   -1.84330993429203   11.88275846823583
H        13.01902844937918   -1.80133420037476   11.66478564013418
H        11.94717910921695   -1.60202062443205   10.25758988324214
C        10.78547176645510    0.57901438219434   11.07322072653842
H        10.67181186998395    0.38885736645189    9.99754450343168
H        10.69156911855759    1.64653226269748   11.25437197598582
H         9.97804578539482    0.08021586252434   11.60382060700895

