113
CSD_code = SIQHEG | q = 0 | S = 0 | Stoichiometry = C42H68P2Ru | MND = 8
Ru       13.75575034609740   18.07830453318719    9.71925197736410
P        12.88119647589560   19.65328852420841   10.98817129879225
P        12.98048293701539   16.50545507228108   11.25971930919531
C        13.22422474203255   21.21017812776069   10.09330386956533
C        12.33172861478565   21.69379854765338    9.10534544657453
C        12.80885870974519   22.57765310026663    8.14694262943115
H        12.15330049717479   22.88426670726806    7.35320912712743
C        14.10490859919399   23.06400879533783    8.16094886178978
C        14.87211896387832   22.76822240732281    9.27903296606814
H        15.84044626805171   23.23033931051949    9.36459240437983
C        14.45364944558682   21.89545181108577   10.26957982475630
C        10.84596097435391   21.32146584127090    9.06539146338759
C        10.01596649565925   22.32078425264119    8.24169970641549
H        10.20609827400189   23.34290965399307    8.56089781401417
H         8.95884742420353   22.10975077785820    8.39309417350054
H        10.21123750311391   22.23781758567159    7.17484432938142
C        10.64600375417393   19.93622934016611    8.44221108984649
H        10.94714879230802   19.94611680242153    7.39585347362498
H         9.59710354340354   19.64973936394870    8.49513738006316
H        11.24367047479719   19.18965217932932    8.97108873179006
C        10.26417878844570   21.35614116670065   10.48294607279878
H        10.77498308973633   20.64687589394100   11.13224862577195
H         9.20564324699240   21.10407103395251   10.46178184006614
H        10.37904311344965   22.35156595874927   10.90621927661915
C        14.68280943309786   23.93769416212734    7.05857638126402
C        13.71250708415160   24.13645353374074    5.89056999078161
H        12.81807671930482   24.66625473792064    6.21013335639868
H        13.42442803485636   23.18219175859674    5.45445173729947
H        14.19354112543378   24.72954921664496    5.11472102860958
C        15.02923316374353   25.31876024387557    7.63191764318194
H        14.13967462124170   25.78296949487462    8.05285577064208
H        15.41985153303728   25.96538429283077    6.84831925695960
H        15.77711895607946   25.24492159423196    8.41666769315954
C        15.95302907122558   23.26962457709062    6.51182299491069
H        16.38714061776452   23.87441660789429    5.71784007973894
H        15.71641642206508   22.28728908758410    6.10614025667560
H        16.70055578299651   23.14509528891046    7.29086182691158
C        15.32462105055570   21.75418430536225   11.52205649896719
C        16.27252590918157   22.95194112455452   11.70464911455559
H        15.73019618519882   23.89217510857236   11.63549681066072
H        17.08120618498596   22.95264476936631   10.97712663149326
H        16.72849603681057   22.89415580750471   12.69123525937374
C        14.44036204523882   21.72033978782334   12.77257895534742
H        15.05599265535830   21.65058006606256   13.66712786650632
H        13.76907396450898   20.86338022304624   12.74977789807711
H        13.84023168740059   22.62586207435105   12.82800274216012
C        16.18599037905110   20.48925751475492   11.44744876331705
H        16.71981423024389   20.33936556777420   12.38389038002929
H        16.91656523782150   20.57608042866304   10.64482204643267
H        15.56125329290754   19.61324888974185   11.25698377426120
C        15.86870861619835   17.95539231654977    8.85143126773137
H        16.85759045501123   18.02787499820711    9.29324604511269
C        15.33854354843101   16.69128824104727    8.52581007476805
H        15.91000445129419   15.79763223401839    8.75027958540534
C        14.11478178769444   16.58652211034238    7.85624840661446
H        13.73727654983165   15.61117844591141    7.56645812872585
C        13.40113242144558   17.74507043037154    7.49029899954841
H        12.50451757273229   17.65721060867206    6.88452172625887
C        13.98915554450933   19.01684338441735    7.70531379644847
H        13.53588985876985   19.90801564430151    7.28279742664648
C        15.21381950509038   19.12121338024930    8.38154893518731
H        15.69004880455599   20.09195876867639    8.47282436367509
C        11.18112216045967   16.02102387544210   11.04560448260189
H        10.96378281771213   15.14780501828749   11.66977705430003
C        10.98285696133231   15.66642026280186    9.57194297199383
H        11.27840453210539   16.53822868594439    8.97611893112740
H        11.62915890636135   14.83006175402761    9.29433558603976
C         9.53219062159572   15.31356480703598    9.26339323499717
H         9.24203035783835   14.42742541537345    9.83442234395623
H         9.42760616217627   15.07501622228194    8.20230155186260
C         8.62080141898750   16.47711743444197    9.63273961155039
H         7.58018743062011   16.22235783986958    9.42031344576970
H         8.88672895554197   17.34771989262372    9.03064837857030
C         8.78777994717002   16.81411653254343   11.10915989770804
H         8.14882887013241   17.65860616098145   11.37439173487060
H         8.47412055440481   15.95650280553695   11.71075836690518
C        10.23934246255506   17.15773228016251   11.43607954394630
H        10.54046532160506   18.06175991157908   10.89835223045796
H        10.31524598965463   17.36265698924977   12.50408795153149
C        13.82652028772510   14.83546671802742   11.07041938556286
H        13.89748759992129   14.72949197456305    9.97758522122255
C        15.25114152726392   14.91706747143183   11.61742092931129
H        15.71971341237299   15.85117003142093   11.29009700970082
H        15.21811278131515   14.92183198170513   12.70750126319279
C        16.06657581262645   13.70831612937320   11.16907726619822
H        16.12540258830887   13.68026893460346   10.07775993367847
H        17.08560263892064   13.77991636860046   11.55624982375707
C        15.40461026064363   12.42856630339118   11.67080900244123
H        15.41086171200802   12.42405767190870   12.76339038839287
H        15.96650004602968   11.55606251205945   11.33046338909222
C        13.96498272721592   12.34476771414995   11.17281264463461
H        13.96537673722129   12.27638056637914   10.08156936517592
H        13.49085691055685   11.44030979453621   11.56080404268612
C        13.15375606526021   13.56989715330461   11.60089512366703
H        13.09386344033686   13.59870029437968   12.68861205230146
H        12.14212973544273   13.46762774824579   11.20727719095626
C        12.99436240988621   16.97618715687495   13.06997059868585
H        12.29585302220925   17.82712514843223   13.05338010462824
C        14.33284154024454   17.55444611262372   13.52750661099306
H        15.07711347922209   16.76897156269757   13.65462153674752
H        14.69464937310434   18.25177743114510   12.76705313588630
C        14.14339118081792   18.27145437125636   14.86092871996314
H        15.09302935298526   18.69488915369808   15.19385189307205
H        13.43610212080121   19.09246676313095   14.73081474624368
C        13.61344619710800   17.29805636807014   15.91061158065799
H        14.35723301174281   16.51684558671603   16.08730055921482
H        13.44898509720655   17.81961817148235   16.85573368006393
C        12.31073255232613   16.65621450575627   15.44143336940170
H        11.54478263621674   17.42801392601529   15.33905926151617
H        11.96331808860364   15.93523840624079   16.18539394998846
C        12.50397042773917   15.95735623284415   14.09519291494677
H        11.56284065158610   15.50294803258934   13.78323668863036
H        13.24486949086970   15.16486819998091   14.21547409303374

