95
CSD_code = SIQHUV | q = 0 | S = 0 | Stoichiometry = C34H55ClN3PZr | MND = 12
Zr       -3.08210963496821    8.39906754023541    3.30172917251676
Cl       -4.98209731109923    7.55024338631585    4.41841872674911
C        -3.62440439423460   10.32123867875707    4.86686635365081
H        -4.60179945981730   10.48715117521192    5.30425953750451
C        -2.57150759689626    9.59382081300707    5.46339872383659
H        -2.60973268504435    9.12029396576878    6.43697605563898
C        -1.42821281201574    9.73092233405469    4.64541233851968
H        -0.43007767966217    9.38390961139032    4.88676705309617
C        -1.78133252634989   10.52663437788962    3.53256201258792
H        -1.09356418751759   10.90319916290811    2.78357296384872
C        -3.13892040512252   10.89908049168183    3.67951806429691
H        -3.66991146771269   11.62353078972973    3.07343568766883
C        -3.46339550165480    9.46881403204213    1.03001458686359
H        -3.38208688479701   10.52375180693752    0.79841007702859
C        -4.64654776657253    8.78607896656945    1.37967720694686
H        -5.62890471088210    9.22910399881488    1.50345568786032
C        -4.36484301860971    7.40007386417284    1.37687960004574
H        -5.09047039312591    6.60612892617034    1.51168155534221
C        -3.00585550663225    7.23021676783088    1.04332806641521
H        -2.50816522955667    6.28420731495438    0.87024624390850
C        -2.44198340916437    8.51175028530115    0.84585175337594
H        -1.45013042905351    8.71437938198429    0.46016029329328
N        -1.72313862318041    7.01023062817961    3.59489068850903
P        -0.79924029600010    6.30484556441304    4.60402534356027
H        -0.46043924202353    6.92546396271358    5.82240899315735
N         0.69777172334733    5.99726101187403    3.89769562626959
C         1.86556083693010    5.45011792760118    4.57203725483114
H         2.71995492968374    5.60968963782833    3.90485801194792
C         2.18223214690977    6.14483092265283    5.89635855471608
H         1.37488481759656    5.94966885786363    6.60123104512727
H         2.25223443324953    7.22370765282861    5.73772222589966
C         3.48674673591112    5.60553208872413    6.47562565881074
H         4.30777944982655    5.81166097591354    5.78426054194266
H         3.71034332195248    6.11049871807348    7.41782048401774
C         3.37952864321675    4.10088702476900    6.70326803597993
H         2.59795504425111    3.90303180341878    7.44014501749192
H         4.32075047799356    3.71574811398098    7.10102568007528
C         3.03502229761723    3.38935928272866    5.39858044684421
H         2.92964899529419    2.31688026178529    5.57574978011532
H         3.85074562299277    3.52927228891466    4.68438093505120
C         1.74156402646613    3.94487658781803    4.80944220822556
H         1.51484284568951    3.44870409077035    3.86400602040449
H         0.91410638324885    3.77026534102889    5.49529782378490
C         0.90151206609742    6.60775681182877    2.59353847537867
H        -0.09911017441663    6.96461564872062    2.30129787350384
C         1.83094848297381    7.82465836930552    2.63305070780953
H         1.46722610172713    8.52147331025051    3.39266381943345
H         2.84660706940744    7.52650472040659    2.90391053800914
C         1.85473176357489    8.50415996311889    1.26751123219576
H         0.85153983821868    8.87010827212589    1.03600364653569
H         2.52828457358292    9.36377995621711    1.29092306599995
C         2.30191143821689    7.52257827117415    0.18817318119711
H         2.28928337901178    8.01204760784265   -0.78780899940095
H         3.32879184793653    7.20849876914469    0.38980396259743
C         1.39382086586840    6.29635658560164    0.16561773946087
H         1.73922755373094    5.59366092326394   -0.59569492499431
H         0.37794020443970    6.60157385868735   -0.09489373837113
C         1.37809616831476    5.61543268248530    1.53170463758918
H         2.38228660143430    5.25439453976578    1.76601249640484
H         0.70676854823132    4.75444535672383    1.51551526592956
N        -1.33617764972298    4.80823016143542    5.20694379992656
C        -1.81737962378263    3.99106568338381    4.09670230185123
H        -1.18024010516853    4.29086687315253    3.24997430671617
C        -1.62514826652779    2.49140950862660    4.33767652201152
H        -2.26820508087717    2.15921713549309    5.15521876323819
H        -0.59209082332002    2.28885019812116    4.62126347818114
C        -1.98369525589744    1.70825927434737    3.07723028470698
H        -1.31273232053578    2.00154036349389    2.26638755393413
H        -1.84480695529719    0.63964865662284    3.25580613162502
C        -3.42617505858797    1.98511661459135    2.66512830833927
H        -4.09998106307780    1.63738426620855    3.45143590269244
H        -3.66490923953323    1.43403405204242    1.75306275999659
C        -3.63570770095248    3.48018909446762    2.44381531164917
H        -4.67587433422224    3.67535473858079    2.17622094197297
H        -3.00773172847049    3.81409275266031    1.61455201046598
C        -3.27304998338976    4.26640344477930    3.70051776112590
H        -3.39295721479080    5.34462263049982    3.52144669330628
H        -3.94111499738832    3.97281424777262    4.51307953179680
C        -2.03600369499230    4.71168349752417    6.48109352860039
H        -2.65419939877313    3.80805019409032    6.44319741249861
C        -2.95742232598948    5.89726069989891    6.77662138294705
H        -2.35434505178563    6.80570751947589    6.85775948632627
H        -3.65979133471107    6.03494267659999    5.95288049721357
C        -3.71333618897597    5.67490995362340    8.08327435272312
H        -4.36382892755135    6.52889707777900    8.27939071931505
H        -4.34728567408147    4.79031498065190    7.98874801840360
C        -2.73779043677457    5.47795173280507    9.23968505208788
H        -3.28659256692767    5.29093176782445   10.16498685212392
H        -2.15097264844257    6.38912403192103    9.37809511470169
C        -1.79765964999955    4.31172382022857    8.94916504016746
H        -1.08404025796234    4.19387946233940    9.76774496151514
H        -2.37818946455889    3.38884713038105    8.87779978405779
C        -1.04781401013755    4.53800591491781    7.63904038796315
H        -0.38960161644073    3.69097277526588    7.43438530726287
H        -0.43261723918935    5.43522100611730    7.72768862153242

