122
CSD_code = SIQHIK | q = 1 | S = 0 | Stoichiometry = C46H73P2Ru(1+) | MND = 8
Ru        2.42329419271170    8.21660616025395    5.26620076935135
P         2.39106665810968    8.39499118630989    3.04495430535899
P         1.17475120151466   10.14197652588402    5.43489286459070
C         1.39465853218083    6.30294577388019    6.30833322073268
C         2.50705681937831    5.87863427699326    5.54645375693455
H         2.36495645964260    5.15110739672379    4.75189539850454
C         3.81531483574803    6.22916250942380    5.92260471784310
H         4.64995303677050    5.78584741982504    5.39253916897931
C         4.04602191077011    7.04699157442432    7.03816386418737
C         2.93366341266084    7.47484284783012    7.79056981387794
H         3.10130263432140    8.02610280380684    8.70740375084090
C         1.64171481180532    7.10545686818766    7.44080919583304
H         0.82026250393949    7.37227922354725    8.09375455796939
C         0.03526713897300    5.68301717484443    6.08650892093101
H         0.04423601467305    5.19629477144280    5.10567631845543
C        -0.19667424279456    4.60186021681576    7.14811448343783
H        -0.20705319350320    5.03246252263042    8.14701253157524
H         0.58610424642786    3.84718571682034    7.10688705010643
H        -1.15308051559563    4.11561776963762    6.97501572941256
C        -1.08625467642623    6.72073900873206    6.11109055199940
H        -2.01328597973352    6.28151938783033    5.75277107636425
H        -0.82676392894810    7.56145114138558    5.46489264449958
H        -1.25796580118000    7.09147935035907    7.11888356628292
C         5.43787466860608    7.29893519922925    7.53497466760331
H         6.10427345193581    7.60504940114487    6.73068025743089
H         5.83723520306238    6.37755706502711    7.96133492758375
H         5.44847532525036    8.06080301626268    8.31130759073281
C         2.98355899692983    6.78823538915023    2.47217320014999
C         2.05573975580955    5.79209159923434    2.07222945723224
C         2.46190207989932    4.46694526478030    2.09650872944400
H         1.74975072052027    3.70047168718887    1.85496403635372
C         3.75698757594316    4.09103468296955    2.42609817773350
C         4.69965337769272    5.10675060655027    2.53158529698172
H         5.73567968382679    4.83252417135019    2.62801815204829
C         4.35904496226282    6.44801580374895    2.51653983852193
C         0.68130117485637    6.15784197523957    1.51094648355350
C        -0.26788030877124    6.67943880094037    2.59225589430810
H         0.22802764332281    7.41638720076210    3.23307109751004
H        -0.61860093595679    5.85953736298071    3.21306465784980
H        -1.13205733578522    7.15387697348878    2.13477824535707
C         0.88373330986003    7.22672019957094    0.42730408723909
H         1.57107558622405    6.86247923948176   -0.33257400531558
H         1.29008561339950    8.14478886265513    0.84870548995501
H        -0.06495285362554    7.46022378904179   -0.04931804586939
C        -0.01128840280314    4.96641549439719    0.83454375140941
H        -0.93530824160419    5.31176039490731    0.37671641331459
H        -0.27294479426135    4.18739688278902    1.54688751808880
H         0.61242195255582    4.54228935671722    0.05205374404493
C         4.18667312095829    2.64331366328703    2.58120452977232
C         3.00544783221046    1.67035810595663    2.53244503879294
H         2.52991880475239    1.67542669471445    1.55482083946144
H         2.26446196796456    1.91128180075827    3.29236862239863
H         3.36181047031411    0.66034540898594    2.72035774218532
C         5.15697061758494    2.28549495812511    1.44697594003901
H         6.05460172143988    2.89681844006378    1.48299145192058
H         4.67951413815693    2.43688969104393    0.48136266914017
H         5.45240232414335    1.24218735930566    1.52537591515903
C         4.88757239913350    2.47396670421675    3.93778130159625
H         5.19442737227057    1.43959716743041    4.07040371803883
H         4.21187099180903    2.73660484941591    4.75071042719340
H         5.77444705761488    3.09769226119776    4.01153378780907
C         5.47170147240374    7.49671394964684    2.45456218300764
C         6.75142586963264    6.91400139016362    1.83236489018126
H         7.45154932430913    7.72103394852744    1.62994025224350
H         6.52979275082846    6.41274404394508    0.89381080998723
H         7.25231525679275    6.21517705435401    2.49725526063088
C         5.81759600744856    8.01451520163206    3.85522284362141
H         6.29907692948413    7.22882296263990    4.43367246244779
H         4.91085076884873    8.34334000272494    4.38117715008172
H         6.50652244645073    8.85377290000868    3.78571025244191
C         5.05005552908888    8.66182506915837    1.55505382076884
H         4.21013778799075    9.21512916213369    1.98400488674340
H         4.75204013801118    8.29389482736017    0.57625959924973
H         5.87497688269895    9.35932328647634    1.42939191672089
C        -0.04954061161970   11.25595197939201    4.60922544089636
C         0.30764829994830   12.56941951950809    3.93989241506022
H         1.17265558154962   13.02922497828856    4.41360999596384
H        -0.54273831315553   13.24583392336105    4.07060126030023
C         0.58692054976485   12.41495442829555    2.44625293235300
H         0.78973620709619   13.39754572949210    2.01820304130713
H         1.47300144584789   11.79260975700442    2.30290446638627
C        -0.58788231311246   11.75608677728304    1.73933117859279
H        -1.47753762460845   12.38213000397904    1.83105356690349
H        -0.36672949407904   11.63907301496126    0.67800410786854
C        -0.84194487186485   10.39731243688922    2.37339301141508
H         0.05605030057705    9.78061182305958    2.27009692715250
H        -1.66823459722811    9.89136619563421    1.87257149805263
C        -1.16447451359295   10.54158315164323    3.85754168073596
H        -1.32655030714353    9.54379991020677    4.27080022100370
H        -2.08881757004104   11.11323925872886    3.97635065528620
C        -0.14272764930805   11.23398485636166    6.16423386077564
C         0.27632853084826   12.47606331554396    6.92330249270319
H         1.18333882518717   12.90226495567177    6.49421950177615
H        -0.52150685071920   13.21738905480831    6.82026556231592
C         0.50704425378131   12.19273501001447    8.40697408303613
H         0.75374215893623   13.12392056577662    8.91937808729778
H         1.35745350531231   11.51457478321808    8.51421850848414
C        -0.71952107617754   11.55028555132088    9.04074471780243
H        -0.52480670457341   11.33104618854380   10.09172440434513
H        -1.56465802073042   12.23927323032209    8.99421777082672
C        -1.06242534723775   10.27122739709402    8.28965522115260
H        -1.93325910906996    9.78867280779872    8.73600971676183
H        -0.21677586253426    9.57875595118916    8.35351828799937
C        -1.33886840937467   10.57090615439887    6.81870319199184
H        -2.19196621466952   11.25059311034031    6.74323926482565
H        -1.60502781626180    9.64511427148381    6.31000233955615
C         2.94736305397598   10.41577645533188    5.47269154518553
C         3.66769345309247   11.12671624015158    4.35189071464657
H         3.04771004940263   11.12748404406567    3.45225745606393
H         4.59589397233297   10.59240882590625    4.12620822747882
C         4.05736975083557   12.56194598157271    4.72553917407265
H         4.62484147624763   12.99781852559904    3.90239796319637
H         3.16384151366320   13.17028733882639    4.87142035996798
C         4.88234346130876   12.57214016545660    6.00517138480054
H         5.79815916611993   11.99533139302657    5.85891043824339
H         5.16716016233496   13.59451427324651    6.25721407414518
C         4.06783947919737   11.97047677346751    7.14164763335999
H         3.18152091120880   12.58160162438626    7.31357649581003
H         4.65077636145175   11.96290760242591    8.06468458783268
C         3.65186504750996   10.53148037501941    6.80673095763449
H         4.57261695246733    9.93347243947752    6.77291411735360
H         3.01078454368444   10.15017489994484    7.60926922639669

