45
CSD_code = SIQJAF | q = 0 | S = 0 | Stoichiometry = C18H18N2NiO6 | MND = 6
N         9.43333777347690   20.06027099678648    4.63131455815055
Ni        9.84815959029438   21.30147850558518    3.23447890966924
O         9.56701166597345   19.98208013931859    1.91642263259348
O         8.32481091259867   18.85353228933418    0.49272398025886
O         7.56130963640050   21.68057364891894    2.57813223792741
H         7.86833825080775   22.48002413866523    2.12063508481999
C         8.48043667160675   19.76772554932711    1.28077115551183
C         7.27649119522681   20.71901199312252    1.56594020681574
H         6.46599428761459   20.09246675269976    1.96082496898158
C         6.85555374368539   21.38068763752799    0.26082800674617
H         5.95498152606387   21.97582128549247    0.40193201407396
H         6.66711561203319   20.61378731170495   -0.48529789742805
H         7.65896135357175   22.02385170681320   -0.09853991118145
C         9.02458444559540   18.80761728899537    4.58772061244211
H         8.88841675642794   18.36917647196097    3.60851698748255
C         8.77535439034200   18.05759193477968    5.74176349039607
H         8.43956447883059   17.03773950870768    5.64167845840832
C         8.95767690842615   18.62319427751224    6.98209556349424
H         8.77041942499757   18.06437440916377    7.88701349781231
C         9.39998835516067   19.95395536425103    7.05881971427293
C         9.62255469377637   20.62631698584464    5.84139296176595
C         9.63503175946571   20.65769851484343    8.27629573993526
H         9.46092418539764   20.13574443048063    9.20541155098360
N        10.26340035311583   22.54246731519644    4.63123904939371
C        10.67250071202072   23.79499970865542    4.58754958274035
H        10.80750135645761   24.23371621992805    3.60832264303151
C        10.92105497986456   24.54531456007719    5.74153890189371
H        11.25690969491975   25.56513741026288    5.64138572501155
C        10.73804070819731   23.98001055932064    6.98190964605440
H        10.92650140208626   24.53849859502935    7.88679092459226
C        10.29642879613334   22.64903588013311    7.05872538161254
C        10.07395906125274   21.97656537019095    5.84135082704116
C        10.06272577486577   21.94494845801282    8.27624865192776
H        10.23478287659256   22.46762765379317    9.20531701518981
O        10.12927776057595   22.62084126158184    1.91634619838668
O        11.37144227559249   23.74956500148349    0.49271736618381
O        12.13518002249250   20.92229626531681    2.57807032977586
H        11.82806118770184   20.12297115368582    2.12043728847179
C        11.21572416765467   22.83509703360877    1.28047936712670
C        12.41981002862978   21.88404253581690    1.56601261539005
H        13.23013081412182   22.51069116681552    1.96110409728713
C        12.84124466112003   21.22253819035299    0.26091540087934
H        13.74204497211209   20.62769376207052    0.40203235173620
H        13.02952917460609   21.98956855181321   -0.48511579906051
H        12.03803160211026   20.57915220501152   -0.09865208860086

