45
CSD_code = SIQLOT | q = 1 | S = 0 | Stoichiometry = C10H24MnN10(1+) | MND = 6
Mn        4.73079200809083   -0.00036734386795   -0.00000144146576
N         3.18823581598869    1.38637192387319    0.25916242236896
H         2.73608252190507    1.49786961170597   -0.65519526762143
N         5.96833715957491    1.68198513216073   -0.12338421624232
H         6.40566885324741    1.81347100688257    0.79561323109054
N         5.02521894586181   -0.05243712734883    1.78193415604841
N         5.05223914249760    0.06663815435019    2.94485902907349
N         5.08677966696115    0.16550107382715    4.07635281118574
C         5.07165535703817    2.83355218271581   -0.33254804608003
H         4.76272553229387    2.84222757163038   -1.38292317594475
H         5.57639771841448    3.78185652238008   -0.11318441606710
C         3.83742589251664    2.67372048279933    0.56666193138670
H         4.14395091458063    2.66517133540294    1.61789422616781
H         3.15186350181318    3.51615047541104    0.41617912642521
C         2.12775193094145    0.99820046225029    1.20015561970427
H         1.33268654209961    1.75497446782474    1.20343146119444
H         2.54941754831332    0.95155213745096    2.20768852861037
C         1.50796601604805   -0.35786810940842    0.83423110920455
H         0.60467993538715   -0.47497045097236    1.43385278383858
H         1.20420648587051   -0.34591131065877   -0.21651765073916
C         7.06853674918185    1.58433463805899   -1.09382039726526
H         6.64429502048484    1.52685307536664   -2.09975787223308
H         7.69551580956764    2.48381267858340   -1.04248788027213
N         6.27339556481683   -1.38702885787704   -0.25911548553287
H         6.72537845018551   -1.49871907669154    0.65530336046228
C         5.62413795023438   -2.67425636923348   -0.56693688200825
C         4.38996571040145   -2.83421820093414    0.33231472600344
N         3.49328267077077   -1.68262067634945    0.12339008694882
N         4.43663180646620    0.05149389615699   -1.78198914594720
N         4.41158434106404   -0.06208066041706   -2.94548892362115
N         4.37944844296031   -0.15739367002308   -4.07732237098409
H         3.05581521066455   -1.81395490704811   -0.79555867726519
C         2.39332407887227   -1.58493171242871    1.09407381669538
H         2.81790164987230   -1.52734044782202    2.09986578424760
H         1.76633737906846   -2.48442139878704    1.04299345792758
H         4.69898830053871   -2.84298564933199    1.38266173327254
H         3.88520779478863   -3.78249647699284    0.11286905048291
H         5.31755289955527   -2.66537357775522   -1.61814826284075
H         6.30966728054276   -3.51676075649522   -0.41671938119693
C         7.33403325344577   -0.99879162966712   -1.19989742560731
H         8.12909634544287   -1.75557155004810   -1.20311012538890
H         6.91254502336662   -0.95206960519036   -2.20750073150365
C         7.95378583935341    0.35723733420413   -0.83378207616196
H         8.85723588191311    0.47434601009898   -1.43314861967795
H         8.25725505699712    0.34524939221429    0.21705001932796

