88
CSD_code = SIQLIO | q = 0 | S = 0 | Stoichiometry = C31H52ClNP2Ru | MND = 7
Ru        5.25329871488953    6.36229348308687   11.22020602719798
H         5.73457047259113    7.79337379018901   11.30224135361140
H         4.77162905868638    7.25250844782495   12.30912339096906
Cl        6.98552555770203    6.73341986466096    9.53654515815679
P         7.01051700944557    5.74708389839096   12.71315157949963
P         3.55215802938642    7.27026292685682    9.80238648328857
N         5.13045893876342    4.41526224630752   10.34011795742415
C         5.84366331035260    3.91202014800259    9.34289417959676
H         6.62439197503489    4.53708194457253    8.92804345087604
C         5.64521018123443    2.63972279407182    8.81201201865611
H         6.27130002587865    2.31177218950411    7.99702893344194
C         4.66228206758130    1.83003291632958    9.33103357051295
H         4.47833623985006    0.84027428210665    8.93928355178964
C         3.90095507466911    2.31533971570388   10.40139214950936
C         4.17551049198993    3.61800996580637   10.87673436512213
C         2.87485392462114    1.56095892208634   11.03647121022227
H         2.66791704665232    0.57009117042882   10.65775884261563
C         2.18573776333310    2.06617699463572   12.08693789708723
H         1.41165020814257    1.48325819843517   12.56661023056740
C         2.45466698731200    3.36816244776383   12.59695760932349
C         3.45574141641798    4.15090385274060   11.97700384070864
C         3.79164893410502    5.45700745169503   12.39961523557731
C         3.07472196582808    5.92658459935917   13.49519290498447
H         3.26992954995273    6.91411363479440   13.89276399912598
C         2.08726095751858    5.16970765639131   14.12748453094422
H         1.56519936482805    5.59291928755629   14.97509682053282
C         1.76698416866757    3.90647452989707   13.68983744335775
H         0.99719738800419    3.32560487263279   14.17737798606462
C         6.42768172871426    5.80591093018379   14.50430201961874
H         5.42231426263356    5.36744606194699   14.43412128059181
C         6.25991808953622    7.25194853504198   14.96728774407366
H         5.59221063711413    7.29338251434768   15.82702532481494
H         5.83451017420462    7.86070234600816   14.17063193904056
H         7.21552830725634    7.67613339195311   15.26554725553996
C         7.20357150941282    5.01227873246755   15.55354838393770
H         8.23968272233005    5.32898507082740   15.62377435627132
H         7.17376829992652    3.94371298581076   15.36058065005254
H         6.73817578172769    5.18226772117846   16.52456092099601
C         7.79068914714072    4.04109792271530   12.66220118164853
H         8.44171360358713    3.98201456032695   13.54000125377579
C         8.64046620835254    3.84199470269816   11.40636875901385
H         8.76266267612626    2.77878114490971   11.20225987421466
H         9.63093236988803    4.27596309430330   11.52244468506129
H         8.16927139499116    4.30482564268527   10.54216512854967
C         6.73496689575904    2.94057760336651   12.78745897527240
H         6.33373631117166    2.67775508441519   11.81321058138842
H         5.90515213633893    3.24489634448270   13.42469674540128
H         7.17961629523323    2.03976466990600   13.21062183215059
C         8.57486265409228    6.77893385338173   12.55803280409944
H         8.94123362422136    6.46556393562985   11.57111069829949
C         9.66459830428667    6.51730211083504   13.59617952179278
H        10.57582186584688    7.02694058321864   13.28344229083767
H         9.90015379902093    5.46250235080004   13.70581465419495
H         9.38141998147987    6.91949248249408   14.56591003563151
C         8.32899862609864    8.28365912031222   12.46568916893911
H         7.98113075184072    8.70197936895014   13.40530614860298
H         7.59973052329753    8.50649820702796   11.69122011246957
H         9.26077217603277    8.77971098501605   12.19618016371994
C         3.12866870835577    9.04279496198939   10.24827055649557
H         2.25092780546945    9.31054007777299    9.65170613243938
C         2.75808155724407    9.16724062688936   11.72487329891928
H         3.65519782242217    9.13760494385846   12.33865231227309
H         2.10081837121797    8.36095432609031   12.04295389113773
H         2.25494623710925   10.11731968396109   11.90268787694349
C         4.26118760430544   10.01144843567367    9.91385743786939
H         4.08509044664922   10.96622467752581   10.40717237630821
H         4.33663205794821   10.19485400187723    8.84518705081429
H         5.21475772325449    9.61885734760604   10.26607809763433
C         3.94167446514936    7.51064743132867    7.98015372902209
H         4.82092746083434    8.16777118900286    8.04050373819281
C         4.41231344386132    6.23710135664300    7.28243481384804
H         3.61053301848853    5.51716495297982    7.14418850097227
H         5.21388451576299    5.77680315457610    7.84953067106009
H         4.80869491763044    6.49224115903381    6.29983109585768
C         2.86938851593333    8.18909995266865    7.13095704130741
H         3.29721814202154    8.43798955192858    6.15984366832392
H         2.50015117414626    9.10945178969935    7.57431076299543
H         2.03091007706847    7.51879440541593    6.95688057420282
C         1.85126183004494    6.46206635416721    9.94303392866881
H         1.82065773440900    6.16789522292845   11.00108953380102
C         0.61523362291199    7.31679422608313    9.66884805005913
H         0.61478766219927    7.72374294321259    8.66217505544457
H         0.51749103263536    8.13285220659443   10.37845756157181
H        -0.26668625972412    6.68432551617204    9.77255902848725
C         1.78169458788249    5.18419064850484    9.10782419030193
H         0.99999622268474    4.52783096159446    9.49020193827040
H         2.72159281411705    4.63854604295797    9.14121846232355
H         1.54905900685339    5.41350756221134    8.07012141368777

