60
CSD_code = SIQLUA | q = 0 | S = 0 | Stoichiometry = C16H39ClIrN2P | MND = 6
Ir        5.50543590602928   11.32446639309747    6.98815102144255
H         5.25157932280879   12.06786321340608    8.31582940216769
H         6.50092233694224   12.40945784894533    6.63224338054764
Cl        3.63265959834933    9.61710070984228    7.20707620937197
P         7.26936799291788    9.99212317327842    7.64501663309685
N         5.66282855641800   10.19209382522928    5.18063450956557
H         4.94146264180707    9.53735854891508    5.51220272768628
N         3.97096107021069   12.48712136420813    5.66912970188204
C         3.79624436544749   11.57201764330674    4.52736295819991
H         3.32892896056497   12.08942856349321    3.67746266686978
H         3.13325432867028   10.76475973401141    4.84953333328149
C         5.10727452819749   10.93324472715538    4.06602524920297
H         4.89828910808962   10.28463605869228    3.19862671566158
H         5.82803708122222   11.69400828094799    3.74463386411847
C         6.87880934240931    9.44850519354371    4.91214915613990
H         7.62727157552256   10.13963669902438    4.51490161738572
H         6.71425190172688    8.66583209543068    4.15113454967806
C         7.36079187618073    8.80114124476408    6.21095776809487
H         8.36248887685850    8.38297247027765    6.09590871380202
H         6.67367057993209    7.98942331257970    6.46366203723992
C         2.69647474239574   12.63779494692149    6.39696834390631
H         2.40498180990013   11.64514006266606    6.74292783512763
H         2.89504804210629   13.24255413043845    7.28216775032593
C         1.53287598487624   13.24322020861925    5.61238551530215
H         0.65450165549422   13.24444428710089    6.25323503020577
H         1.29653593765678   12.65938868925689    4.72551441568734
H         1.72887786742077   14.27073650697380    5.31420012868846
C         4.45138222389396   13.78752676710719    5.16574020430215
H         3.76338240069015   14.15777003143837    4.39152830111091
H         5.42031007965725   13.62160775061700    4.69160066789063
C         4.62361275981123   14.85275805692372    6.24018670781336
H         5.19644553885519   15.68129575600744    5.83054398981983
H         5.16428297716615   14.43396011713568    7.08537161263108
H         3.66829373208151   15.23890810740933    6.58381981786094
C         7.16495530099362    8.80533409176129    9.13318872528377
C         5.70904336907935    8.35526437343877    9.22222524058157
H         5.57669393939662    7.68463402810272   10.07077291212391
H         5.38853434465756    7.82752034098206    8.32677352879726
H         5.06007264730041    9.21573108855177    9.35872201193989
C         8.04129168165893    7.55530559155862    9.04248760192336
H         7.85879476217328    6.94618390189305    9.92783710022000
H         9.10066783563317    7.78066186947303    9.01260234477056
H         7.78845299561483    6.95217842617378    8.17386353550055
C         7.47149539509767    9.59816039248531   10.40367585078596
H         7.11536402308031    9.04825888533127   11.27390712926854
H         6.95353759264666   10.55583946209532   10.36631809837351
H         8.53659660246143    9.76793281516893   10.53401150426892
C         8.99497429886205   10.82105337923974    7.65580545314372
C         9.27827715633229   11.33270947647383    6.24199056854823
H        10.14457914945454   11.99249280603682    6.26161332371773
H         8.43114895770341   11.90225326759982    5.87058338179768
H         9.50324503491084   10.51423533164619    5.56227376481362
C         8.93342072320668   12.02422119496720    8.59729093942001
H         9.79749978687397   12.66643949633101    8.43512320522716
H         8.93267199759882   11.72112550145659    9.63818652452910
H         8.02716573843899   12.59393495104091    8.40320172007362
C        10.15574811824040    9.91036754611553    8.05055425837612
H        11.09031731891024   10.44583381395922    7.88273825555695
H        10.18211148065436    9.00628622916155    7.44575665055155
H        10.12260404679652    9.63964522021309    9.10086383431344

