88
CSD_code = SIQLEK | q = 0 | S = 0 | Stoichiometry = C31H52ClNOsP2 | MND = 7
Os        3.88908290209400    1.76135110169371    3.93132043425886
H         3.34318112906016    0.31011787428297    4.00998299093319
H         4.30845587998622    0.77958840415565    2.83131919830442
P         5.60327963047945    0.89980670139817    5.41903867121248
P         2.11443038640805    2.44642293269595    2.42333629022387
Cl        2.05427928010425    1.60435781806721    5.57431474009691
N         4.11831059414006    3.76950959527878    4.77654054763670
C         3.47071115380579    4.31603465821510    5.79373129081464
H         2.68765417095943    3.72646485486123    6.25053898805116
C         3.73498028374366    5.59063420236961    6.28821970035680
H         3.15896220607179    5.95784668829809    7.12317890927334
C         4.71783649664608    6.35388069795844    5.70263094051506
H         4.95004631653952    7.34725196664325    6.05862897742706
C         5.41771715190902    5.81762851347428    4.61467985936159
C         5.08337984986614    4.51346691398949    4.18382793957960
C         5.75285287917727    3.92195809261345    3.07978510995068
C         5.38038228650568    2.60715384385635    2.70734777578966
C         6.05699227845438    2.09322726826999    1.60463415179963
H         5.82861036304965    1.10128922023824    1.24050829029621
C         7.03942712486648    2.80846675880759    0.92000130584496
H         7.52604008866461    2.34970624711893    0.06992651655516
C         7.39861984830145    4.07623686879213    1.31085591432969
H         8.16596503878997    4.62672742971446    0.78559185314010
C         6.75427578857799    4.66056159131540    2.40625062093930
C         7.07487693240114    5.96997555566761    2.86460699186756
H         7.84693736599801    6.51544462238103    2.33960786026609
C         6.43987268103667    6.52528246636403    3.92325726648214
H         6.68874667957369    7.51962278467156    4.26618748191842
C         7.24558537177816    1.83793273893747    5.40250854760414
H         7.29748845475519    2.19656788562221    4.36587214525362
C         7.19756233509998    3.06404304777897    6.31349175687844
H         7.39700071768939    2.78653992254881    7.34633597122996
H         6.23038612942974    3.55651828907079    6.26931422432871
H         7.95500908921990    3.78617358268843    6.00811701187377
C         8.52792681113033    1.05475830279875    5.67908959483157
H         9.36563379803410    1.75200023863851    5.65345677866066
H         8.71236536228874    0.29463681392306    4.92623009632100
H         8.51725855127490    0.58603958123534    6.65860517692973
C         5.14256636951168    0.55930628243832    7.21123661243360
H         4.32956782562013   -0.16874253108789    7.08330447496285
C         4.52636438696309    1.75702858298801    7.92951822673777
H         4.14458541694096    1.43477619313202    8.89817064907073
H         3.68711793879428    2.13882190889972    7.35862197088226
H         5.24184759714504    2.55595180868706    8.10090941675858
C         6.22925506555814   -0.06041085006345    8.08738677143058
H         7.00240479864538    0.66748020898698    8.32141691102944
H         6.69043114248178   -0.93222314491614    7.63204383331281
H         5.78171920489913   -0.37726464662615    9.02941229320801
C         6.18593508168364   -0.82031809146501    4.93375508451480
H         7.05347499530065   -1.04453954679133    5.56151415343158
C         6.62574822809806   -0.85591581917969    3.47206115116500
H         7.20646397510246   -1.75739427055651    3.27934201992536
H         7.22868888225612    0.01008950474109    3.21061632448195
H         5.75153707006217   -0.86578697473491    2.82623311656307
C         5.12256659024979   -1.88959071853281    5.17162502369107
H         4.17143801843241   -1.57871951618965    4.74196480716054
H         4.97802862313816   -2.09344821899934    6.22920329598531
H         5.42621864426663   -2.81796565665809    4.69007879959626
C         1.36529084949635    4.16635235090467    2.51886752201497
H         0.70839762736556    4.24896675538135    1.64686843538711
C         2.43473103025076    5.25463585527909    2.40402041402212
H         1.99748994562165    6.16882902408801    2.00212181991778
H         3.25523869566563    4.95322902830648    1.75411347014475
H         2.84613730275055    5.49451066430271    3.37962695173376
C         0.52719369127533    4.36474076779974    3.78158118218720
H         1.01742113306220    3.92735970259024    4.64765394271073
H        -0.45451850589250    3.90692161774609    3.68465147237366
H         0.38346206972261    5.42861445507015    3.96842771300150
C         2.69417253926203    2.42711611374594    0.62755309288874
H         3.70641317564829    2.84616445709050    0.70591115601963
C         2.83856111871722    0.99040487895051    0.13006707152299
H         1.87681435843171    0.59045011161718   -0.18098084815224
H         3.25051124111815    0.35703058111835    0.91426555884538
H         3.50814088851964    0.95834855380904   -0.72835765598546
C         1.92889237697197    3.25861816104343   -0.39953525409244
H         2.39031949654531    3.10669603155900   -1.37540817231517
H         1.97387286681786    4.32144622235393   -0.17990030221671
H         0.88812250586862    2.95896927570887   -0.47600602336746
C         0.53222392896063    1.43478246760394    2.54819732624107
H         0.17466083443859    1.72071724003955    3.54562832750817
C         0.76316372029253   -0.07450868110074    2.58637749704935
H        -0.15556210825715   -0.56824803831701    2.90072900486458
H         1.54131750337596   -0.32548197572655    3.30272084192728
H         1.04473245949578   -0.46909866293464    1.61501441607626
C        -0.55970954186385    1.74490399586369    1.52650220301752
H        -0.28500210568296    1.37827521380748    0.54039690130820
H        -0.78790464085091    2.80492774297384    1.45915423042610
H        -1.47316772021607    1.23036550885704    1.82445084732908

