90
CSD_code = SIQLAG | q = 0 | S = 0 | Stoichiometry = C31H53Cl2NOsP2 | MND = 7
Os        3.57492316273852   16.34729940143435    6.17411605549164
H         4.96298932370673   16.82049922707338    6.61306299248839
H         3.71728022270460   17.57888697954337    7.09195225895140
Cl        1.88712257638618   14.87913596059292    5.04932043242213
Cl        1.51334875488684   17.67693997292974    6.40854697383815
P         3.12150032982799   15.17656699799533    8.25937020148070
P         3.96234136084786   17.66271894974292    4.16123249230297
N         4.53484520697747   13.78880914636318    4.95945370958029
H         3.51781076696497   13.78365476486955    4.77016261403633
C         4.95866661098046   14.88897285836526    5.61821025373947
C         6.36406722502424   14.88346857866467    5.86903235398079
H         6.80626060569213   15.72417658956181    6.38161399840647
C         7.17239238248303   13.85369350996810    5.48414799144599
H         8.23358665220395   13.88260502860923    5.68928780724881
C         6.64491567350839   12.72323600495595    4.81473906159120
C         5.26545741316972   12.72465104763455    4.55890498403447
C         7.43715098042650   11.62261220176806    4.40804502417360
H         8.49696369628307   11.64710703101261    4.61481358033916
C         6.86904745314034   10.56455685871073    3.77473582911539
H         7.46975850837066    9.72263290511592    3.46327676330088
C         5.47495973669884   10.52984607107222    3.50568409385424
C         4.64861373964832   11.61547367794924    3.89473051286092
C         4.89318768889223    9.42612905090935    2.85683443186959
H         5.53026945229979    8.60397072270033    2.56375256785997
C         3.54809178640645    9.38913063541074    2.60111256784833
H         3.11100524034933    8.53642145461472    2.10304147879752
C         2.73402563724136   10.45871119247764    2.98631582576157
H         1.67447810117666   10.42296494756730    2.78314460647102
C         3.27014381795330   11.55089753747410    3.61966046452758
H         2.61351009088361   12.35863862784427    3.90456097569915
C         1.39685729810669   15.32895338255945    8.98380387064622
H         1.31698654761649   16.41878198917875    9.10378936290793
C         0.27669335754803   14.91871629298719    8.03174560930871
H         0.26091688358229   13.84821858712999    7.84873750979813
H         0.36911031523901   15.43832958879377    7.08413617057880
H        -0.68176077444203   15.20495657601828    8.46424147339338
C         1.17797085560051   14.65843826530670   10.33884483763780
H         0.22385403097706   14.99480318209574   10.74413926548878
H         1.94972221601050   14.90424730123803   11.06331612451608
H         1.12326385778200   13.57762900377359   10.23016624205141
C         4.13293704173194   15.84646405405072    9.69248084535223
H         3.97448350239770   15.16952299714846   10.53721667941559
C         3.69325035923887   17.25027853167600   10.10009700238449
H         4.43309598031928   17.68786607720817   10.76889356574937
H         2.73762715469052   17.24086403697810   10.61751402820824
H         3.60642793058859   17.89103291844507    9.22324727154978
C         5.62114844022385   15.85028322812684    9.35162352586311
H         5.83497277660648   16.64201060033654    8.63833404909076
H         5.93758886667552   14.90508382885653    8.91672588358908
H         6.20831201167241   16.03048709500822   10.25145994289198
C         3.64517621161414   13.36166121493965    8.27490436608385
H         4.56369297583622   13.37869316378115    7.67134523658495
C         3.99970906461517   12.72935915970320    9.61978000098241
H         3.16943251407523   12.76440844410870   10.31799204511920
H         4.86451555734941   13.19996146613106   10.07868141614255
H         4.24703558876049   11.68122963546845    9.44950478557828
C         2.62358671393002   12.48953759456048    7.54592968362420
H         3.09292384622031   11.57049650559900    7.19441758739701
H         2.20599822343457   13.00949786708581    6.68731937036272
H         1.81007719896647   12.21543411698376    8.21379576142790
C         3.39101399993188   19.44807154809520    4.27553196558657
H         2.30369915678117   19.31659570919075    4.35183687392013
C         3.83137653653889   20.15906944622665    5.55375851424013
H         4.88826850339840   20.40695696164358    5.54079494967771
H         3.62568195264996   19.54381261594837    6.42571804367905
H         3.26720412664228   21.08501014974330    5.65755620641303
C         3.69733672157300   20.33880379199973    3.07364931589363
H         3.13913476388926   21.26915771413862    3.17629859825415
H         3.40991662999451   19.88555581241200    2.12901770275935
H         4.75402896348939   20.59392425059450    3.03813169994291
C         3.16796907157320   17.16399078516792    2.54064623191655
H         3.59418872692467   17.82261407084406    1.77529634665980
C         1.65338576605046   17.35735473390936    2.56952275012847
H         1.20240420757015   16.85487369738131    1.71459255219341
H         1.37809504880054   18.40866197043711    2.52818334868038
H         1.22569670473156   16.92974078685501    3.47264733133148
C         3.51203228883483   15.71747409971745    2.18441278763073
H         2.91161753183212   15.03807395117273    2.78179929305938
H         4.56363544008681   15.49225545139367    2.35712903323690
H         3.28822530258055   15.52989198572831    1.13461000142540
C         5.78905812957318   17.64329168350909    3.67891198480461
H         6.06409221490801   16.59121851497064    3.83969513230123
C         6.61807541646173   18.48242024421030    4.64835159923664
H         7.66448304061847   18.18268527015206    4.60195540096399
H         6.26487732064047   18.35066119188038    5.66946160195277
H         6.56208975748321   19.53611824182165    4.38819263737191
C         6.15838773256459   18.00405935443640    2.24168904360320
H         5.84094650889138   19.00881177708082    1.98125838898650
H         5.73769474619610   17.30694492382261    1.52301072672210
H         7.24336294387055   17.96224462729874    2.14289352020318

