45
CSD_code = SIQMOX | q = 0 | S = 0 | Stoichiometry = C15H20AuN5S4 | MND = 4
Au        0.36311127974132   12.28137727235306    1.31543966547113
S         0.83337454291162   11.49021738227550   -0.85555730752390
S         1.68261072846053   13.96559601914764    0.32221257352442
S        -0.80143374156544   10.43928128264946    2.18754516632716
S        -0.09613236974899   13.27144712220333    3.39229280211089
N         2.38030211897136   13.24747886772014   -2.17095942872322
N        -0.64859140614140    9.59718431842004   -0.34386789398279
N        -1.63020147428673    8.18721882070173    1.26579060357566
N         1.51602710784282   15.18231413852180    2.44472428430228
N         0.54249102312541   15.46394073473066    4.56946253612274
C         1.73503741904603   12.94399802394982   -1.06625678331919
C         2.42388970647131   12.35959178271515   -3.30612529896088
H         1.90664177878553   11.43537803315653   -3.06205308690462
H         3.46165918246246   12.13968917281325   -3.56226666305545
H         1.93971110727239   12.82824638923017   -4.16502659635455
C         3.09735985550703   14.48854912505973   -2.32733837968229
H         2.93847916071445   15.11064484074811   -1.45028562489425
H         2.73802984650919   15.01136485109177   -3.21528861322154
H         4.16519008533767   14.29137124968485   -2.44129207062380
C        -1.03476972036406    9.31201589534289    0.88953833153944
C        -0.87930411046168    8.69524684338722   -1.29459100031096
C        -0.42960864190384    9.03413613604805   -2.67697537501056
H        -0.67760571843558   10.06858864830827   -2.89868601352317
H        -0.88934820011782    8.37294741905046   -3.40619939752090
H         0.65327380718713    8.93294106538463   -2.73473266000663
C        -1.50434027614868    7.49517520548768   -0.99169780145355
H        -1.70129624886988    6.75851775151061   -1.75393329779634
C        -1.86673792916123    7.27634135765656    0.33819391536130
C        -2.53431577224503    6.01639557003037    0.77968346660362
H        -1.89435911608777    5.16111417235591    0.56906468086200
H        -3.47016423993047    5.88009930522016    0.24056499351401
H        -2.73244143509167    6.06783951299199    1.84567148376877
C         0.74861973725618   14.78582689249844    3.44722218451483
C         2.14227917437211   16.35087803505879    2.56169655427759
C         2.99926695664217   16.77939205025175    1.41734086636283
H         3.68431899963531   15.97646442117492    1.15607686292559
H         3.55671563995724   17.67796075774662    1.66615020748834
H         2.36976344928789   16.97074367550848    0.55010070748366
C         1.98764026743084   17.12255533769783    3.70299611956887
H         2.49152356171413   18.06955860312611    3.81131682355908
C         1.15324391620879   16.62744110353330    4.70650000990387
C         0.91099239773891   17.37583693127893    5.97501670473966
H         0.20876664162527   16.82329881507292    6.59129204513853
H         0.50892448220664   18.36362449931930    5.75695288044907
H         1.84690642608424   17.50297056779698    6.51668682339952

