69
CSD_code = SIQNAI | q = 0 | S = 0 | Stoichiometry = C27H39AuClN | MND = 2
Au        5.84794540320291    2.44801509290257    8.53839030960321
Cl        8.06008412265414    2.02709148532229    8.64605890066297
N         3.38550663148696    3.49076483949895    9.53405909947596
C         3.88398251095612    2.86528308187591    8.51200249851848
C         1.93802283269161    3.79569316905586    9.47963555792258
C         1.50388765483287    2.95190926118814    8.27849935347970
H         0.77535477939291    3.48730527227764    7.67822231399690
H         1.04035329861962    2.02924607778645    8.63157275876484
C         2.79619658129223    2.60396363990177    7.49570355423462
C         2.75845898375855    1.14258064819016    6.99674111893627
H         2.63944842355773    0.47855465880659    7.86200189971785
C         4.02576834975054    0.75189960877809    6.23826620549254
H         4.89896106028359    0.81651367262188    6.88981925208977
H         3.93446597145428   -0.28516347028097    5.90757416153657
C         4.20919545879852    1.66649101703454    5.03150710096026
H         5.13899150523849    1.40653005748366    4.51626841821367
C         3.02502291008307    1.48798410731049    4.08279429543845
H         3.14782040046683    2.12197132266055    3.20191484417884
H         2.97103311286366    0.45133819226870    3.74377465705451
C         1.74364556701718    1.86536927830058    4.82265039429019
H         0.88286145330885    1.74049864215958    4.15595375979594
C         1.83381440118241    3.32453681069241    5.26529638828060
H         0.88653064917350    3.64175999595771    5.70404685904460
H         2.01200200640661    3.96109408770848    4.39553831255547
C         2.99942894195593    3.49512354819709    6.24364604593899
H         3.06106585244375    4.54453852856144    6.55586372123326
C         4.28203042761581    3.11848529942312    5.49881355751011
H         4.39614254018002    3.77883601353570    4.63575148087309
H         5.15390746240092    3.25504981593214    6.14097959498170
C         1.56944966507955    0.96522504065100    6.04607722792345
H         1.52225759302575   -0.07845948978643    5.72792335880844
H         0.62767169742075    1.19800781633009    6.54602325118504
C         4.17478210464576    3.85240992201159   10.67195742742183
C         4.29597710290644    2.94041636380757   11.73092497356749
C         4.97019825599781    3.34302493346685   12.87566202403843
H         5.06722114496845    2.65752719716256   13.70220660618000
C         5.53265817186061    4.59991710316820   12.96836511039723
H         6.04087461701106    4.90117294142042   13.87179246037112
C         5.48989714246600    5.44825644359724   11.88132403961484
H         5.99158401707160    6.40121528226845   11.93480840638296
C         4.83032339345894    5.09028423856029   10.71217487461864
C         1.70350976547102    5.28834225656652    9.24659178910721
H         2.09206803298925    5.86330593112925   10.08221039654074
H         0.63491710651868    5.47639863514574    9.17101149034852
H         2.17356192515395    5.63078270177184    8.32904901232704
C         1.21956967869986    3.39800738877723   10.76531664806947
H         1.26114756026817    2.32578061498917   10.92813284835052
H         0.17392982428885    3.68857794932082   10.69289547755134
H         1.65871658877587    3.90468162952797   11.62196799678616
C         3.82078842602400    1.50793808204317   11.63779855628319
H         3.24493705287005    1.37610822333696   10.71714549134068
C         2.94991888778645    1.09929674185935   12.83014256385196
H         3.54797593265968    1.01206805242391   13.73300407043602
H         2.49405165973279    0.13020274951011   12.63860842821784
H         2.16029501352466    1.82315794097408   13.01672076454903
C         5.03960317250106    0.58289563191910   11.55075809883895
H         5.66894259092770    0.85659087172826   10.70487113548955
H         4.71646240311490   -0.44783644547331   11.42260571138547
H         5.64017062822241    0.64835260716513   12.45404112125507
C         4.95304092352157    5.99797164842639    9.50949198748741
H         4.34434296596860    5.59962165172389    8.69429250135845
C         6.41006339676296    6.00102733823887    9.03338107573921
H         7.06476713217580    6.42628300119329    9.78922335616774
H         6.50219691004495    6.59075276865404    8.12402521646106
H         6.74819444579892    4.98733737418022    8.82399147581541
C         4.50914455242334    7.43368368050424    9.80419563541335
H         3.51649101390527    7.46655011483312   10.24710193907707
H         4.49181252470691    8.00967506829938    8.88176025834421
H         5.19935568617838    7.91918424342278   10.48867877811478

