163
CSD_code = SIQPEO | q = 0 | S = 0 | Stoichiometry = C78H80N2O2Zr | MND = 6
Zr        7.92413817699906    4.29602509578557    5.38687731507232
O         9.67851386882026    4.20272464922312    6.24111392604407
O         6.11590638399762    3.81328924310260    4.82984251303419
N         7.31047823743225    3.18103960508925    7.51735020476627
N         8.10618571792448    1.83997991081867    5.10785336400664
C         7.67262669413383    6.52007208591631    5.73583262260147
H         8.68324249833409    6.93725287457618    5.65629763956283
H         7.04214839943292    6.87336450266048    4.91377858932883
C         7.42050511088697    1.71945945035840    7.47456556534859
H         8.42123612291960    1.43296772686041    7.81257252666658
H         6.69293467035843    1.24952175869405    8.15585963791119
C         5.91923272515991    3.55244439252190    7.76254861103307
H         5.80752351136429    4.63854085496321    7.76416010014281
H         5.57218312919973    3.16355328001133    8.73342447052885
H         5.28702577933288    3.14417744076124    6.97763971448499
C         8.13755118862571    3.73021616469406    8.60241431335493
H         7.77480291566891    3.35036069597803    9.57404622158213
H         7.99832278753130    4.82106064301573    8.59646129260617
C         9.60934615464392    3.43064139749485    8.48570202600472
C        10.31805645150750    3.79671417092959    7.31334272181213
C        11.73247581384206    3.71863097366041    7.37535453012844
C        12.34225599249278    3.14554391045619    8.48152877743374
H        13.41618440785176    3.06819474038420    8.47826805849795
C        11.63999592327160    2.69250572202251    9.58799659021101
C        10.26485372181498    2.88268296435927    9.57356958060770
H         9.67319764266902    2.61072927686160   10.43683077772087
C        12.60933754936736    4.18351186802238    6.21039440634415
C        12.31007100024278    2.05041353524092   10.79217212634233
C         7.07229932194768    6.81151838683100    7.02343541682674
C         5.67324394033917    6.88565400515196    7.17693044913356
H         5.05335796917282    6.73976818153513    6.30256070347578
C         5.09471954513748    7.15872249666188    8.39937689010222
H         4.01777468271535    7.21865412436436    8.48048954649108
C         5.88155987396440    7.37186958159985    9.52306870691756
H         5.42693211304656    7.59184901052478   10.47725761496223
C         7.26162233846976    7.32425991368414    9.39648989282966
H         7.88660860236619    7.51034298130235   10.25958289567389
C         7.84739706469678    7.05431671221182    8.17481783400942
H         8.92747809052925    7.04855383267180    8.08951802474472
C        13.82288687543002    1.89725668255295   10.61232431719833
H        14.05410591511812    1.27801179225943    9.74850492363870
H        14.24598172801274    1.41744309141915   11.49274828371936
H        14.30447940789107    2.86503150896678   10.49342472774101
C        12.06173884219836    2.92267671199443   12.03058888514638
H        12.54441275849103    2.48588025702959   12.90246442937042
H        10.99985875808306    3.01765611459899   12.24011745741899
H        12.46823733947934    3.91922227825214   11.87294910858794
C        11.71215353429559    0.65362138271614   11.01438225344377
H        11.86861550925809    0.03385662944562   10.13359152479526
H        10.64446880580041    0.70729545633880   11.20898480084259
H        12.18889266427597    0.17089216831177   11.86493403775089
C        14.04443676415076    4.45940850875561    6.66263273523173
C        14.25653739215631    5.31449658555235    7.74202383895269
H        13.40642401261392    5.71808307130231    8.27177500071082
C        15.53482765858977    5.64362298923817    8.14711945253992
H        15.67671698782621    6.30116553465072    8.99252864110661
C        16.63223312614075    5.13861252306404    7.46858030067922
H        17.63292350704733    5.39525323813644    7.78322662182153
C        16.43302534778538    4.31174727307427    6.37912778017456
H        17.27995368529906    3.92186939706355    5.83317522189893
C        15.15004284297317    3.97824182422465    5.97578129722835
H        15.02134811071113    3.33435255157416    5.11842311304003
C        12.22349881907368    5.54783792696320    5.65412784332858
C        12.82763981662860    6.00210619483326    4.48317771960394
H        13.53491465044975    5.37095608045192    3.96474722094895
C        12.55685328475947    7.26204354349221    3.98323684304646
H        13.02221398597833    7.58384666983141    3.06289982643097
C        11.70826751837377    8.11494201911382    4.66791568536714
H        11.49605506884335    9.10039687719154    4.28031934845705
C        11.16312111168536    7.70372693083267    5.87071404531500
H        10.54293544021983    8.38223190826948    6.43966603126583
C        11.42182743887732    6.43391813098699    6.36155301016366
H        11.00815319424717    6.14349524181312    7.31564508497994
C        12.56348124072871    3.04686170922840    5.19812247177694
C        12.07371884738437    3.17771609300324    3.90577785174844
H        11.68485135652447    4.12229854449997    3.56628021653285
C        12.08330900889111    2.10287011271489    3.02819497001044
H        11.71154944484184    2.23722069926960    2.02195699228768
C        12.57095596011636    0.87212905142966    3.42833152772221
H        12.58972685918077    0.03988690473090    2.74025347365140
C        13.03494538282825    0.72099050617308    4.72507263578584
H        13.41414581748046   -0.23511121699088    5.05580889576219
C        13.02738872168005    1.79325483035022    5.59649624032485
H        13.40090445122551    1.65957471925490    6.60030991600342
C         9.00867388500276    4.69836486517184    3.42559969958195
H         9.85992290378026    5.30653658838933    3.76218151745479
H         9.36990672426438    3.74321797867847    3.02354240511388
C         7.18240414085248    1.20661808151088    6.05416296168991
H         7.30209665392697    0.10852884446278    6.03717886262014
H         6.15819574753854    1.43957064361995    5.74632051869232
C         9.45480434903741    1.30470568534023    5.29869917431165
H        10.13711574904492    1.76909398739631    4.58820859647300
H         9.47319842207554    0.21414527876300    5.14341279236327
H         9.82908402206085    1.51711537746543    6.29842317424285
C         7.70200862772881    1.52081665146094    3.73479708144678
H         7.67409661378186    0.41913506266030    3.62343628262613
H         8.49307409533866    1.88120388629877    3.06361426432390
C         6.36995380591168    2.05097555698196    3.23651298993498
C         5.64642446117779    3.12066186263130    3.80782768606008
C         4.35387382776245    3.37780121356143    3.26031175506459
C         3.95242513839545    2.71054403898633    2.12010045768167
H         2.98105989173854    2.92876712198190    1.71119646202770
C         4.71997322732881    1.74120554081717    1.48319089950770
C         5.90578744301057    1.39770322915731    2.09790819256736
H         6.51715774554471    0.60204225713112    1.69934814656766
C         3.33533079887158    4.24596165363670    4.01488653939509
C         4.20114641099436    1.09214066633833    0.21124839226617
C         8.24757056454708    5.42610321032436    2.41372806989263
C         8.32923035615755    6.82524614580816    2.31496522872192
H         8.96758216200450    7.36072821531460    3.00834529395060
C         7.63976561608198    7.51832745233744    1.34059071119299
H         7.73867641882863    8.59404235820370    1.27486430918786
C         6.83103903283322    6.84703633107128    0.43527083187053
H         6.28826277005196    7.39207745204333   -0.32259648699027
C         6.74358886285401    5.46599469778024    0.50679272776854
H         6.12660895368528    4.92802463504782   -0.19976757761588
C         7.45042319076392    4.76601426340950    1.46425565295058
H         7.38886601797675    3.68530914808786    1.48054190216449
C         2.87883575582564    0.37192339887551    0.51141061126672
H         3.02917116536415   -0.38743309702191    1.27638369305497
H         2.50262940601638   -0.11317326064934   -0.38701428091925
H         2.12220815071421    1.06711347393646    0.86547202419120
C         3.96787193610035    2.18262342548974   -0.84308050454819
H         3.23954096122208    2.91253505954462   -0.50070705391956
H         3.60112505936927    1.74085315301592   -1.76752411981836
H         4.89980201907007    2.70248539387719   -1.05447678423315
C         5.18476132494218    0.07132000652664   -0.36739588270949
H         5.34174476152503   -0.75589282370857    0.32121313929922
H         6.14202077711054    0.53724049567272   -0.58929257243683
H         4.78420420068919   -0.33542817597054   -1.29383358947303
C         1.97712520683731    4.21228084765965    3.30073445131891
C         1.83972099822792    4.94182913382824    2.11836208487060
H         2.68909005924038    5.48834865527450    1.73390681209339
C         0.64334580408310    4.96528463444540    1.42983699942883
H         0.56365582613499    5.53266790104946    0.51396481895268
C        -0.45157859954887    4.26540983991860    1.91213609451634
H        -1.38973431032582    4.28441655772501    1.37744996941379
C        -0.32973405763658    3.54578188750292    3.08511013816175
H        -1.17604644820202    2.99870567185816    3.47532262558838
C         0.87381024925196    3.51798920274660    3.77370824660118
H         0.93507152770117    2.94858415090210    4.68841898124009
C         3.18313402495800    3.62214482474987    5.40015561101588
C         3.14518755602040    2.23013171593208    5.49920206434794
H         3.28396282401053    1.63010926204532    4.61097553542274
C         2.90963212620764    1.60237842687251    6.70900647649537
H         2.87859156369436    0.52259374754614    6.75322574406954
C         2.69163155577430    2.35171159854153    7.85342010350196
H         2.48488218634872    1.86387993813795    8.79471117157871
C         2.74223131688694    3.73111723756081    7.77268368700853
H         2.58469508829417    4.33089665565236    8.65703922026962
C         2.99403731005456    4.35817096401807    6.56278207277851
H         3.04223485109319    5.43362343481749    6.54300209711580
C         3.67220664826812    5.72910140250211    4.06638792285307
C         2.70100256390963    6.60818654246029    4.55254396141505
H         1.75320022121685    6.22031635414519    4.89928831366970
C         2.91441938438982    7.97226273609066    4.56574188287832
H         2.15231808216539    8.63075130789492    4.95691053391683
C         4.09299148507150    8.49256432396170    4.05678195428247
H         4.26010161165781    9.55939964923229    4.05258115992546
C         5.04212909074402    7.63451715479072    3.53568017220763
H         5.94662682530780    8.03074868956381    3.10084393107824
C         4.84037756807412    6.26034493151441    3.54435253749803
H         5.59285059867973    5.61460437856939    3.11603562779966

