68
CSD_code = SIQQUE | q = 0 | S = 0 | Stoichiometry = C30H27AgBN8P | MND = 3
Ag        5.14666742268309    2.97711021814276    3.86290416456564
B         3.51371651712831    0.85030613925395    2.04633707347920
N         2.52750125178942    1.92218681947584    2.53380441517026
N         2.97945526081770    3.05937029227504    3.08638574224608
C         1.91654768697526    3.77349146912558    3.42864462126418
C         0.74760357591470    3.09466480450731    3.09342734616932
C         1.18621525436637    1.91607578598083    2.52890239384533
N         4.08545162514478    0.10723144161357    3.27685374687057
N         4.65461585998017    0.73796828519890    4.31020331455678
C         4.97378868923609   -0.18224526276558    5.20710614893727
C         4.60015157231120   -1.44678556370587    4.75691392706275
C         4.03498740882616   -1.21247234687054    3.52267552843792
N         4.63335497011895    1.56450143794564    1.26233134462595
N         5.75035466513369    2.05234124935129    1.81349939878702
C         6.43648903934250    2.64341345479810    0.84435227807197
C         5.75277906338957    2.54322456966353   -0.36686896165550
C         4.60373853176456    1.85378645346961   -0.05007204995353
N         2.89089359517294   -0.17849055552734    1.11685823717199
N         1.58836069409331   -0.46414121548331    1.02323357799291
C         1.47184027218777   -1.46954010066690    0.17972979722041
C         2.72755441198401   -1.87040158249235   -0.29355719732962
C         3.60587680695269   -1.02150854742956    0.33460767489567
P         6.71692714659182    4.36681400928806    5.08211372013754
C         8.07781185479786    5.04285382977976    4.07561460357794
C         7.72755427349824    5.58260989004517    2.84084112699359
C         8.69642013437474    6.12075341785400    2.01564266814696
C        10.02411499512346    6.11455299819647    2.41471327184143
C        10.37824568171120    5.56998229367065    3.63812300161724
C         9.41094212666230    5.03404862774083    4.47053256123123
C         6.18000197886271    5.82926750865862    6.02825485529222
C         4.90831214223888    5.77444947567022    6.59173306532807
C         4.43040731613721    6.83552623472834    7.33701133157213
C         5.21637060390071    7.96366724414975    7.51369452726811
C         6.47822410875630    8.02709634496757    6.94509840566703
C         6.96401781951645    6.96463880714617    6.20347360488369
C         7.61725164452466    3.39552205196376    6.33264623536638
C         7.97099191231600    3.87064996283184    7.59018093569343
C         8.65019902924242    3.04463627689735    8.46966022110920
C         8.97848538834354    1.75033795631919    8.10168181340262
C         8.62284187803259    1.27245359414023    6.84918917314911
C         7.93947652496399    2.08957523934825    5.96967612244189
H         7.39271490147285    3.08853924056978    1.04873408501620
H         6.04946590170380    2.91830494491634   -1.32485567848117
H         3.78146123648111    1.56091963158754   -0.67122536163247
H         5.44726244107469    0.09747502585265    6.12969746702542
H         4.72070721206383   -2.38720661131804    5.25416723469341
H         3.60599098046959   -1.90432188041282    2.82716402477341
H         2.03421693801919    4.74013837467545    3.88248438952307
H        -0.26347546812963    3.41401962391503    3.24169032025897
H         0.65289378833145    1.08388860128533    2.11702539225349
H         0.50471113305406   -1.86817897852596   -0.05748479612861
H         2.95172785890054   -2.65682672834302   -0.98510183290442
H         4.67502064139218   -0.96290342932523    0.28328219285594
H         6.68698734779118    5.56676940432406    2.53641248649306
H         8.42053038599376    6.53870512756561    1.05874378781421
H        10.78395888366853    6.52930169186853    1.76908280169345
H        11.41376906020758    5.56132252632944    3.94582959015021
H         9.69066948257477    4.60617003368102    5.42316431422641
H         4.30148075195227    4.88974155448617    6.43135895649430
H         3.44434432563930    6.78848253891060    7.77527806617486
H         4.84278781372425    8.79673379578997    8.09038012996011
H         7.08742235637532    8.90897426544646    7.08008506202744
H         7.94816505420169    7.01669664567652    5.75877051734268
H         7.71335510260413    4.87915144225649    7.88181508764375
H         8.92294503744437    3.41377082492671    9.44769783577256
H         9.50622503893111    1.11097499737951    8.79377117101948
H         8.87142202009853    0.26065182844242    6.56485323598804
H         7.63769903919794    1.72728249885728    4.99172575278878

