89
CSD_code = SIQSIU | q = 0 | S = 0 | Stoichiometry = C37H41AgBN8P | MND = 4
Ag       -1.17934762268656    6.56412097214880    5.30549776744943
B        -2.76675309223090    8.12635862411796    2.85999028287667
N        -2.05568332533800    9.16293138531416    3.76475692033182
N        -1.26347826404958    8.84647780487670    4.79751035666454
C        -0.90838987038483    9.97309144806989    5.40065360459022
C        -0.01329862384485    9.97502173033493    6.58951149463481
C        -1.49333920178298   11.06083397270412    4.74265253929473
C        -2.21693824246744   10.49697583385089    3.71673307634007
N        -1.77658042888162    7.08313531508371    2.29003981378032
N        -0.82152509516809    6.47656520221842    3.00546734501328
C        -0.23369989261489    5.57941627932194    2.22489943925483
C         0.88827379521923    4.73549039154102    2.71935407154697
C        -0.82680659740498    5.60170796086916    0.95731339397680
C        -1.80607977567356    6.56449385542602    1.04954659510132
N        -3.81113540631228    7.38404145696259    3.70738719844636
N        -3.42255005030682    6.65482921851817    4.76579865886846
C        -4.50858598089604    6.13176830627574    5.31838957225374
C        -4.41662101304132    5.26410107035599    6.52365800457241
C        -5.63849119736452    6.53159357464659    4.59675942288710
C        -5.14613872651460    7.32534263689675    3.58392005422939
N        -3.34765514222817    8.87952585863664    1.67559924795613
N        -4.64142532229434    9.02586634533281    1.36495715253810
C        -4.70756663248870    9.76440488487330    0.27136861459692
C        -6.00938991376524   10.12022601293396   -0.35607663656165
C        -3.41327155194160   10.11943467868195   -0.15059118606326
C        -2.58183328555491    9.53560536125482    0.77191208097037
P         0.26981410634820    5.53675718852393    6.94942176659744
C         1.89852994392921    6.36076719171966    6.97687302071256
C         2.79140598103374    6.22458475578419    8.03219770939394
C         4.02580020668050    6.85954563441325    8.00214159097431
C         4.98596795864417    6.68825421962712    9.13999055172662
C         4.35353936057269    7.63450134605214    6.89578766818552
C         3.46578036086567    7.77840585622233    5.84254318747778
C         2.23683852702425    7.14657950969633    5.87950478771213
C         0.73885552204899    3.78348839254543    6.80356717038186
C        -0.24528616141252    2.83739900773768    7.08358354625341
C         0.00226764700707    1.48343745638037    6.93756600833621
C        -1.05329693919940    0.46502990994794    7.24253456455659
C         1.25676259125552    1.08222146769164    6.48391972417012
C         2.23096021429300    2.01535415698613    6.18145170739429
C         1.97880891316808    3.36816822384442    6.33504421123821
C        -0.22555985927357    5.64025433819885    8.70175367129286
C         0.20714754303485    4.74992056815998    9.67868335866363
C        -0.18670122812053    4.90286492323191   11.00004402746105
C         0.29094375677052    3.95236821295575   12.05576287453367
C        -1.02156721184270    5.96450293387016   11.33348309617176
C        -1.46465052648094    6.84876632840524   10.36548811180099
C        -1.07279383638977    6.68666208444290    9.04969772537071
H         0.93165359642169   10.46465059547767    6.35701364748337
H        -0.47790529616621   10.50980267987421    7.41632251255446
H         0.19151516940605    8.94861144293550    6.89576188725947
H        -1.40258830468737   12.09990456086743    4.98570766401481
H        -2.83029040646418   10.96915848403742    2.97674571991381
H         0.97090059119173    4.83570482908289    3.80297346647072
H         0.71622986877834    3.68914830423489    2.47320616696942
H         1.82970278184472    5.04301597353553    2.26359861072128
H        -0.57915160226034    4.99890896528865    0.10732849243112
H        -2.51202210738100    6.89446897455531    0.31476431407982
H        -3.37336481305388    5.20206836094928    6.84333986934393
H        -5.01340893772402    5.67257776360154    7.33798861043823
H        -4.78121249399118    4.26137922816707    6.30297836209083
H        -6.66062594081359    6.27642864132466    4.79040829888799
H        -5.63697669037635    7.85165125410374    2.79096416073535
H        -6.06074410925563    9.73135341580806   -1.37272535699236
H        -6.82253545198707    9.69781903142220    0.22762008904971
H        -6.12692412873422   11.20246055127294   -0.40134990112419
H        -3.14182458805225   10.71159337134866   -1.00108656606208
H        -1.51260405754058    9.53994729779561    0.85170777756225
H         2.52441759614994    5.62312151743055    8.89003801515882
H         4.46597147007481    6.75194011013537   10.09376737991519
H         5.46090688617216    5.70832692820792    9.08324998614409
H         5.76458699160664    7.44625012191165    9.11089772274299
H         5.31168666525211    8.13319175962701    6.86179547230341
H         3.73298667182075    8.38888916295057    4.99268655940973
H         1.52418145227404    7.26135526332821    5.06774221785843
H        -1.21530666780352    3.17744418554222    7.42647581852901
H        -1.91373061926818    0.92731410277066    7.71932837999693
H        -1.38563622897138   -0.01555275814394    6.32263739682372
H        -0.66026769254261   -0.30989834281095    7.89875744673777
H         1.46376931874231    0.02859984829930    6.36266959248769
H         3.19635491284234    1.68838192428621    5.82302255765963
H         2.74129641798001    4.09578913484870    6.09567310527663
H         0.84356846607490    3.91855696884326    9.40517430913153
H         0.68169694418061    3.04035287963143   11.61065783335707
H         1.08535645630044    4.41485377384921   12.64265757532042
H        -0.51821706243017    3.69518984554140   12.73638877590989
H        -1.33346193758851    6.09002404530736   12.36047046226568
H        -2.12183079946578    7.66141590639520   10.63780042508035
H        -1.42740873048636    7.35980600869154    8.27579217611854

