84
CSD_code = SIQXIA | q = 0 | S = 0 | Stoichiometry = C34H41Cl2N4OPRu | MND = 9
Ru        8.35509788873621   15.26719945041607    1.54552786345988
P         7.48850233656835   14.76689653369029    3.60530930941793
Cl        7.27159388804053   17.30819112285626    2.00511513842625
Cl       10.27165106278808   16.10044299227462    2.62887842997662
O         6.21905959088817   14.79658233129054    8.10457468860231
N        10.04603466596139   15.77231823611719    7.11238279231919
N        10.28855595330580   16.39314007582357    8.26690863674964
N         6.24196122752109   17.65755843123134    7.09963990599987
N         5.68558218990457   18.00078605864623    5.94141310310199
C         9.62809515358867   13.78945280461557    0.37184184649675
C         8.37881061014988   13.20053553142830    0.63710834604203
H         8.33896669855867   12.21680172793841    1.09572775044471
C         7.17504858032679   13.82362242596110    0.21018798843320
H         6.23326862469491   13.30684239182152    0.34521333669434
C         7.20037314388004   15.06447072395772   -0.44287355631726
C         8.46797356781113   15.65439854279984   -0.72228107356436
H         8.50641640003467   16.58144623148247   -1.28450868298202
C         9.64934416424573   15.02757197404935   -0.33349528851142
H        10.60828354098294   15.46615810816310   -0.59212568666619
C        10.91873300284289   13.11911463830297    0.73440578287467
H        11.47450849150433   12.86375071503458   -0.16861882554399
H        10.74016441053303   12.21274320328794    1.30882905172304
H        11.53341105304209   13.79638234988951    1.32865923060037
C         5.94643373874340   15.70508043665503   -0.98676545698230
H         6.17269547421426   16.75422177603513   -1.20683778570210
C         4.78823499672366   15.68050730101269    0.00912670185057
H         4.43706032168229   14.66812384387600    0.19613406383464
H         3.95645456624164   16.26050293362032   -0.38255687331469
H         5.10314073125843   16.12367926780498    0.95184069631206
C         5.56574588463968   15.00255440379462   -2.29536433617613
H         5.33462647035825   13.95470130178818   -2.11209704019083
H         6.38051503297225   15.05545820556622   -3.01525631247095
H         4.68971031601378   15.47793984907671   -2.72942638713818
C         5.69222144988262   14.53562548934105    3.48120189373306
C         4.80664746071694   15.57189122972463    3.76710005199094
H         5.17229927937075   16.52090082408950    4.12932922248094
C         3.44879208870996   15.39507920583345    3.56504411473043
H         2.76822027373722   16.20110693849040    3.79508369364189
C         2.96070906577950   14.19981924089082    3.06443686578287
H         1.90010149636120   14.06677324294071    2.91071505420608
C         3.84079923445525   13.17905110710637    2.74270675041630
H         3.46766671475183   12.25119060285474    2.33211399842255
C         5.19848193636956   13.34952364499192    2.93938878072627
H         5.88596556600335   12.55866936123820    2.66947362530756
C         8.16868882570093   13.17689690043446    4.20245027004560
C         9.54594858690546   13.02675714826209    4.03882516754585
H        10.10808047465484   13.83877950148235    3.59380893834221
C        10.18123601302176   11.86821892973692    4.44536896238072
H        11.24925883905039   11.76756229098433    4.32065733003924
C         9.44643763478374   10.83769340295263    5.01035431401334
H         9.93715181057513    9.92822350056502    5.32354033869916
C         8.07781351317122   10.97620536222698    5.16913078410483
H         7.50133665491552   10.17416159176998    5.60666137739042
C         7.43799146021722   12.13776399165741    4.77006639051153
H         6.36884493775872   12.22429073460016    4.90155582549125
C         7.80023870202033   16.02852982215256    4.91631551807591
H         8.82499383345574   16.36621983135750    4.71883791613047
H         7.14204157693028   16.86504255874880    4.64732977776616
C         7.65136406156919   15.73020874726566    6.41387607534201
C         8.87087433834659   14.96316147277104    6.97683592871737
H         8.60744008607879   14.60994311276823    7.97705673870970
H         9.09429404701945   14.11009889393747    6.33387744388839
C        10.99950290011712   16.03721672160822    6.19460917458398
H        10.97626372456888   15.63518667677253    5.20222388756902
C        11.90728534785936   16.87701290442680    6.79628404960894
H        12.79565845966976   17.29191441133375    6.36756195765977
C        11.40996932512073   17.06453640735726    8.09188594196184
H        11.82084828888337   17.64920478302423    8.89109629140788
C         7.55679153356443   17.08774787605392    7.15787422669307
H         7.81507825713446   16.93747543171781    8.20747464623549
H         8.27146062615071   17.78687146661730    6.71335809715782
C         5.40894857497418   17.88005539265253    8.13273258189544
H         5.69046092020714   17.65338225192820    9.14059992132302
C         4.24917004851881   18.40600622050081    7.61038385456494
H         3.36986127120508   18.71143173952134    8.13946820478678
C         4.48182171886057   18.45830198061422    6.23133910443176
H         3.83469679746813   18.80673069799937    5.45076200799068
C         6.39195802148246   14.90894732541561    6.71008100232082
H         5.51450362471168   15.39166960711964    6.25893589691301
H         6.49299921652101   13.90970617104588    6.26438173354449
C         5.00975311447798   14.17824502267785    8.45289984893031
H         4.15040746169246   14.74906254715206    8.07869942052423
H         4.97828228840659   14.14367822281256    9.53980422974730
H         4.95388473734563   13.15785154016719    8.05278341369954

