57
CSD_code = SIRCIF | q = 0 | S = 0 | Stoichiometry = C27H22N2NiO3S2 | MND = 6
Ni        1.55951549398068    0.17494054040809    2.37058741632093
S        -0.14733206345839    1.75578516493469    2.91314423714674
S        -0.26456653582098    1.97408902545235    4.96393414143945
C         4.10895345892246   -1.05619211530206    2.78942783039358
C         4.89000628946489   -2.23699765996031    2.95047554227609
C         6.07406637078085   -2.22574310004445    3.62883465563880
C         6.58173835240938   -1.03832556055920    4.17995498424489
C         5.88020956714335    0.12367244150506    4.02982288532876
C         4.64639788889236    0.15483183508648    3.34695723402443
C         3.97909338332026    1.38525849215933    3.18127188665224
C         2.32116544466947    2.84203612434157    2.43359816728676
C         3.16611973697237    3.88961587781943    2.05368499664364
C         2.65488611043502    5.15009592754740    1.81275645071417
C         1.29755439841993    5.40216633524472    1.94025013084446
C         0.44151169548597    4.37135274671794    2.28619994156161
C         0.95019850725518    3.10725619232137    2.51417056894530
C         0.13626905600102   -2.31663173824605    2.39693490629594
C        -0.47130908272355   -3.27274253609409    1.53943236220850
C        -0.75429861273727   -4.54630499484942    1.95172847004781
C        -0.44605487303201   -4.96017395301539    3.24999847223073
C         0.12982906877495   -4.06579315950131    4.11360079183923
C         0.42391133473055   -2.74523841679337    3.73354712090770
C         0.98494959700284   -1.87691882933728    4.71436335903026
C         1.83357810071562    0.19672776927168    5.43241433829214
C         3.02774281375921   -0.14527994642717    6.07568569041073
C         3.68683814872810    0.76919904762733    6.87096902717033
C         3.17422671000230    2.04633404224448    7.04572261411995
C         1.98861589363301    2.40134645251144    6.42732118988740
C         1.31828164910673    1.48800376307288    5.63158555974109
C         2.41586969697714    0.66243085257477   -0.76892697321003
O         3.01035709588995   -1.11609463989457    2.15319576601357
O         0.34217689792480   -1.14242282634393    1.91901803284033
O         1.29455945799400    0.81590407613593    0.08223481289706
N         2.78060497812347    1.55399892960384    2.69820496573585
N         1.23466072584599   -0.63407263271546    4.51152227391152
H         4.49042781582958   -3.14651022718141    2.52806974799197
H         6.63116106481572   -3.14405910656624    3.74942674313577
H         7.51954714004987   -1.05124576077393    4.71356472353946
H         6.25717382896060    1.04717782646361    4.44788594675553
H         4.53017410761109    2.26848744806914    3.50835087462430
H         4.22115083006345    3.70472530888192    1.91518766486796
H         3.32396242263824    5.94361035170085    1.51484609264506
H         0.90681938569232    6.38996253658150    1.75241833691282
H        -0.62154248984317    4.53349632662537    2.37331016955113
H        -0.70712036970205   -2.95121652167421    0.53549549217309
H        -1.21315935331284   -5.24218795110786    1.26349210874675
H        -0.66305058731779   -5.96941798527429    3.56453011350793
H         0.36737442309224   -4.36958740841787    5.12443785879819
H         1.14897299653081   -2.31105638180469    5.70806541564843
H         3.43912853261084   -1.13018726011213    5.90877933669451
H         4.60975094630995    0.48591230851789    7.35480974335232
H         3.69458181342726    2.76335017400106    7.66199062989163
H         1.56706885702517    3.38602798854318    6.56156014510976
H         0.70610838352930    0.05676179047021   -0.05017805301904
H         2.10192868496784    0.63319248464311   -1.81716880004606
H         3.05316866683728    1.53261614440149   -0.61504044070952
H         2.98144614459542   -0.24206561348501   -0.52995770000667

