109
CSD_code = SIRCOL | q = 0 | S = 0 | Stoichiometry = C52H50MoN2O4 | MND = 6
Mo        0.00029344749520   -0.00002252018830   -0.00035176776313
O        -1.06304684474968    1.13899509321581   -0.75723941887714
O        -0.37661038317810    0.97785527041841    1.88346100278061
N         1.69867047016462    1.51021974143382    0.28655600010274
C        -1.82125249007120    2.13513425490349   -1.18557461481841
C        -2.26191630046835    2.21461949974404   -2.52322122404312
C        -2.96472291065381    3.33933975158966   -2.93431506831436
C        -3.27298061579558    4.35665034088365   -2.04835207931740
C        -2.88777737256237    4.25321690771047   -0.72082161961557
C        -2.16700258845245    3.15686573453182   -0.29343535920350
C        -1.16949759750599    0.55179111735532    2.82582133539312
C        -1.90836078536559    1.46138135121542    3.62818469308145
C        -2.74342700563831    0.97764597913503    4.62489869959368
C        -2.86843848057669   -0.37698708698816    4.87455899306842
C        -2.14684480937373   -1.27396619721260    4.10366267090606
C        -1.31944627983479   -0.81731423607472    3.09955375180385
C         2.98865632927473    1.16073233227630   -0.29846566047585
C         1.37545073773723    2.91083547593797    0.03688971759589
C        -2.00634738592549    1.10179713352305   -3.46079622173252
C        -1.24055589398335    1.27881558576596   -4.60725687475060
C        -0.99905177007821    0.21540167276281   -5.45789159121807
C        -1.53009148617666   -1.03236755675992   -5.18260240265564
C        -2.32784290243932   -1.20819826762577   -4.06456289126638
C        -2.56453651408550   -0.14778386892586   -3.20779047629916
C        -1.80764916840760    2.90628945248330    3.38320881973491
C        -0.56784269410800    3.51071934250882    3.18157004497209
C        -0.47712962674924    4.86486790385424    2.91774733453194
C        -1.62159051315596    5.64291657067621    2.85583727028078
C        -2.85845244807375    5.05596181764178    3.06573414594672
C        -2.95168290351373    3.70127149563873    3.32565423960399
H         1.76660341211150    1.41244041626942    1.30297210399613
H        -3.28523795885130    3.39985078005429   -3.96469282388679
H        -3.82313286598537    5.22021409973394   -2.39002127832734
H        -3.14270809731030    5.02809860106125   -0.01368016099610
H        -1.85916828452994    3.05309528385473    0.73838827557121
H        -3.28957035562470    1.68548780454263    5.23382304354916
H        -3.51500643163980   -0.72890129596010    5.66470916045083
H        -2.22843244564611   -2.33671822938707    4.29227317821373
H        -0.73099814923718   -1.50693095034883    2.50631145859516
H         2.93124573283241    1.25661069255678   -1.38334146495661
H         3.23328745127922    0.12345084474280   -0.06602739385616
H         3.79021347869736    1.81311721574185    0.07260535519233
H         1.22196079386032    3.07556189672463   -1.03040525324476
H         2.18660004774448    3.57025343305739    0.37240758227837
H         0.46412187957019    3.16818201040384    0.57515217426616
H        -0.82072697189105    2.25089704484524   -4.82071432049995
H        -0.38328136283921    0.35829595337333   -6.33301889221072
H        -1.32826477230103   -1.86463510296502   -5.84038015260656
H        -2.77417507205527   -2.17351574631560   -3.86539992945382
H        -3.23274048194916   -0.26060719473028   -2.36320632910820
H         0.32164369173557    2.90276440876702    3.24425925870414
H         0.49144936795857    5.32099455709629    2.76369990181072
H        -1.54933383256691    6.70077271670289    2.64768370608222
H        -3.75580461524138    5.65757977721128    3.02236811462092
H        -3.92116644017808    3.24553770720626    3.46859695366543
O         1.06297326761834   -1.13915665561313    0.75729146407322
O         0.37632886678452   -0.97805229187847   -1.88397719885129
N        -1.69854427110614   -1.51023215570830   -0.28607442768571
C         1.82116157806219   -2.13536309655402    1.18546891115378
C         1.16925851486171   -0.55132008453092   -2.82596982209535
C        -2.98866951429020   -1.16112281773084    0.29883888308479
C        -1.37515632957661   -2.91086923760546   -0.03672030843774
H        -1.76646016054382   -1.41233134287131   -1.30249175410566
C         2.26144116983741   -2.21534162363418    2.52320128009016
C         2.16703548292060   -3.15684569050478    0.29309361593633
C         1.90865990557644   -1.46037850459764   -3.62838971314495
C         1.31869153894454    0.81793281026477   -3.09934432280695
H        -2.93131106512885   -1.25715402563819    1.38370298512256
H        -3.23341893278040   -0.12384681499783    0.06651247458222
H        -3.79010279197188   -1.81357114214148   -0.07240632956525
H        -1.22135058106114   -3.07574679258473    1.03050414011121
H        -2.18632910976214   -3.57032156152898   -0.37213108872372
H        -0.46395944258480   -3.16808005550783   -0.57527419191086
C         2.96405734146898   -3.34024934207854    2.93409715236446
C         2.00564622757127   -1.10284944322079    3.46109267140470
C         2.88769367588734   -4.25333614816710    0.72027392078068
H         1.85935378855958   -3.05278652246753   -0.73875237171404
C         2.74361805741984   -0.97606821440413   -4.62490806732800
C         1.80849133503834   -2.90534613998913   -3.38361952291072
C         2.14602685443825    1.27517505415158   -4.10324346800469
H         0.72998318229776    1.50719130931698   -2.50595387886697
C         3.27253259110456   -4.35724624078780    2.04786039931745
H         3.28451996950698   -3.40101027258278    3.96447918325184
C         1.23970882815441   -1.28031341149596    4.60739749834811
C         2.56373512941925    0.14687279505391    3.20856190153562
H         3.14271722957559   -5.02801780026899    0.01295027727285
C         2.86806588400193    0.37867211038979   -4.87428115605448
H         3.29008510611394   -1.68354942142507   -5.23395548478235
C         0.56891193064932   -3.51024605117043   -3.18197300434640
C         2.95281601121709   -3.69990952793990   -3.32624258062925
H         2.22725790086343    2.33801345085838   -4.29153999509920
H         3.82268225082005   -5.22088674821868    2.38933166675401
C         0.99792847253290   -0.21718244124765    5.45831398793697
H         0.82014953999946   -2.25257365521968    4.82061991710770
C         2.32684111157866    1.20697726569520    4.06566779873390
H         3.23180439452617    0.26012296664457    2.36392235324989
H         3.51461414380954    0.73103620963564   -5.66424707688544
C         0.47869565867084   -4.86448264455225   -2.91844104668499
H        -0.32080959478260   -2.90262880755197   -3.24465094597059
C         2.86007885327838   -5.05469488096919   -3.06666106370468
H         3.92213274074273   -3.24377326603313   -3.46903279380976
C         1.52889754621035    1.03072528543270    5.18351429520490
H         0.38233935206149   -0.36051869356984    6.33350048060632
H         2.77289492237981    2.17248094308800    3.86672530741901
C         1.62343586633474   -5.64214403557583   -2.85684105235452
H        -0.48971711542147   -5.32099756150105   -2.76448497726312
H         3.75767408737199   -5.65594319662241   -3.02319445252828
H         1.32695136113403    1.86274137533924    5.84157466422529
H         1.55158630803754   -6.70003403083702   -2.64871885031727

