62
CSD_code = SIRGUW | q = -1 | S = 0 | Stoichiometry = C18H30B10RhS3(1-) | MND = 8
Rh       13.33747865845147    9.45177595552266    9.60983978346946
S        14.65390672825200   11.26014253352917    8.89214978653823
S        11.96963647949804   10.93606591617108   10.80529450938812
S        11.79652279443065    9.69764540041453    7.84376621330498
C        14.11404284126840   12.67018320847976    9.87095698966965
C        12.83190022064467   12.51835125346994   10.78235676878304
C        12.85675584722685    7.52603648870325   10.64784103505433
C        13.49961289217526    7.16999377056234    9.42474842790979
C        14.80677348395582    7.72911705278800    9.43938515398184
C        15.00398114754036    8.36568252225987   10.71822892548025
C        13.81270531738551    8.22243533703246   11.46784114014742
C        11.53012786320939    7.01711423281761   11.12349705879051
H        11.65474794758327    6.05372749254706   11.62764120542944
H        10.84688097263459    6.88070146203247   10.28780498612981
H        11.07964378703799    7.71780198499338   11.82339309087477
C        12.92739525975671    6.25659741913133    8.38504959170432
H        13.01468428692641    5.21912147194785    8.71931410390329
H        13.44999328356964    6.35984309224375    7.43645893144009
H        11.87391049071185    6.47161401818300    8.21354053618524
C        15.91306708978404    7.45446527038735    8.46644167906925
H        16.53102862027662    6.62954009647448    8.83387437771585
H        16.55011409811017    8.32931116736317    8.34876814169484
H        15.51989271084168    7.18076330951688    7.49003640499596
C        16.32228957180419    8.91251226697307   11.17571543378855
H        17.07213221029961    8.11781644773303   11.18033545515413
H        16.25105542049824    9.32894616217854   12.17796877968877
H        16.66617435745262    9.70025029587812   10.50462541217144
C        13.57451948833816    8.59811669173537   12.89838604469930
H        13.34654809672522    7.70361300324257   13.48218507654275
H        12.73111532288981    9.28513479252251   12.98066437787221
H        14.44830716080525    9.08214658245502   13.32892848798140
C        12.52415048288226    8.97922365847852    6.43993471778509
C        13.89498593253407    9.04651412165818    6.18431071812779
H        14.53309115134448    9.57361401554505    6.88025827455575
C        14.42527361797089    8.45647401518583    5.05588605007677
H        15.49122951751277    8.51311664129155    4.87533872928808
C        13.60539480746003    7.79966343329080    4.14989824148689
H        14.02612981753087    7.33496639348075    3.26815606362133
C        12.23898859784689    7.75229637846991    4.38282664917377
H        11.58895737761524    7.24981877127883    3.67744916015122
C        11.70124540303826    8.33328542569146    5.51216950370746
H        10.63745181466437    8.29519105304194    5.69833495449995
B        12.68506247890066   13.49788399651975    9.36936642757183
H        12.10168390805051   13.02043898461329    8.47064641425921
B        14.25775551166227   14.25798494862833    9.24039305464312
H        14.74497071674667   14.37740864931278    8.17546877807775
B        15.27818464311110   13.71390127896880   10.58516858626714
H        16.41446122417414   13.48163335763380   10.37738333896898
B        14.36121677797655   12.60565513562667   11.57808905616913
H        14.77912198899825   11.59117711811503   11.99933807661619
B        11.94905157830477   13.98542803857492   10.88188485070045
H        10.78003063308668   13.90946481407199   10.99429163409285
B        12.87608885205776   15.15761943492677    9.91330616020294
H        12.35784126671370   16.04349883792734    9.32993887413137
B        14.49145515914269   15.30315816620515   10.65834664026877
H        15.11814741935818   16.30252422921168   10.58840775663362
B        14.54335026362302   14.26815807515407   12.11006118504532
H        15.19225953640070   14.52323639708220   13.06358400623269
B        12.96966500167297   13.44147545797698   12.22644915519348
H        12.45341566533251   13.01330903398939   13.19473255289135
B        13.03980712684016   15.13152491214701   11.69044209783257
H        12.62208727733170   16.00818852664846   12.36370038218346

