77
CSD_code = SIRHUW | q = 0 | S = 0 | Stoichiometry = C24H46Br2NOP2Rh | MND = 5
Rh        2.28598893696882    0.29739496780896    3.43774646803396
Br        2.86604077382286    1.75980941967765    1.53490676808247
Br        0.45213139249812    1.76607196326837    4.14161887610058
P         3.68835547885786   -1.20108689222053    2.37729353738094
P         1.27137874264333   -1.31728376090248    4.75396359518141
O         3.81275377293879    1.89909920116556    4.80953548823789
N         3.57475828596472    0.74357547332262    4.75573401935964
C        -0.56254595212485   -1.48243326743780    4.56913270798476
C        -1.12551716797675   -2.72426425618155    5.25845273314717
C        -2.63067313042445   -2.82144935787572    5.01320400081641
C        -2.94082326925468   -2.86267265514680    3.52076407292136
C        -2.37682365016893   -1.62398198153358    2.83340131278439
C        -0.87484214319180   -1.52781856799367    3.07064947177273
C         1.62512056989920   -1.39790902914181    6.56403539597345
C         1.32917039342401   -0.05673309554523    7.23127908432333
C         1.64838968770213   -0.12485600692163    8.72110088210797
C         3.10498996922868   -0.52479509438200    8.93465343488828
C         3.39073762630727   -1.87124937776345    8.27592271726061
C         3.08151287169204   -1.80795697759841    6.78285567694764
C         5.52525664689427   -1.06164818708946    2.52795963030047
C         5.94513515259610   -1.31791714794992    3.97495790901123
C         7.46535686942644   -1.26348561076802    4.09711609363865
C         7.98873332155598    0.08771110819855    3.61827257839847
C         7.56245986375039    0.34534739333613    2.17600359333831
C         6.04262371269988    0.29402266713786    2.05299926486528
C         3.32781140453532   -1.51504983795626    0.59060414918879
C         1.81347954667932   -1.69945478846878    0.45993167910188
C         1.41630080516360   -1.95102600660044   -0.98933062319380
C         2.14571355916815   -3.17481488340422   -1.53330595445191
C         3.65380183484235   -2.98455078118713   -1.41075164597921
C         4.05720936615110   -2.74047295788181    0.04256303611931
H         3.58043148092338   -2.52920155493351    2.83005444198008
H         1.61617505359867   -2.64428323479023    4.44049337348808
H        -1.01741036205600   -0.58193035493235    4.99947707763453
H        -0.63241079001569   -3.61765472247583    4.86282477591052
H        -0.94778164266565   -2.68571310548085    6.33452329025376
H        -3.12246980543781   -1.95456869555335    5.45959334839140
H        -3.02051761170091   -3.71694578046246    5.50173964785143
H        -2.49604159674835   -3.75874214954127    3.08045243880274
H        -4.01984493661855   -2.91583266318433    3.36777774103500
H        -2.57736548153624   -1.66376580537030    1.76112697723559
H        -2.86021189499022   -0.73016273530468    3.23226217898160
H        -0.48852085983448   -0.62709006492197    2.58089898692418
H        -0.37817644541542   -2.39774856283298    2.62710330260904
H         0.97361894880953   -2.16988249615745    6.99258101919845
H         0.28178603127154    0.21715434952581    7.08226735048860
H         1.94257940106249    0.72134080335509    6.76933022634562
H         1.45690991920455    0.84605365345859    9.17981327407441
H         0.99471003088012   -0.85746179833624    9.20149750644149
H         3.75532325835077    0.23624616038871    8.49832136096682
H         3.32305315732126   -0.58060914768219   10.00286570620335
H         2.77472540938312   -2.64317531336301    8.74455271770381
H         4.43753401676675   -2.14448235246711    8.42217076388493
H         3.26682142980563   -2.78116240737910    6.31831738784670
H         3.73788688650874   -1.07606425974089    6.30812933535791
H         5.94780387484884   -1.85332031175354    1.89500345708764
H         5.50631638134425   -0.55219975553360    4.61947019798125
H         5.57245500819205   -2.29155439637784    4.30751960130017
H         7.90814692752580   -2.06020353495589    3.49380424171244
H         7.75527457220427   -1.43015848499650    5.13635022495906
H         7.58947115294877    0.87747511284425    4.25802206019763
H         9.07724377008759    0.11216689307350    3.69544967348445
H         8.00831776978770   -0.40989399312062    1.52328633320688
H         7.92069006947651    1.32291167982461    1.85043825255113
H         5.74286053461785    0.47574975539007    1.01814596045645
H         5.60919047566099    1.08789890718683    2.66590010207574
H         3.62846333660501   -0.62205855428255    0.02924373632111
H         1.50411124935184   -2.54974379505059    1.07898773155237
H         1.29766940649420   -0.80416498746596    0.82688767044951
H         0.33619559697939   -2.09607450724880   -1.05449523928024
H         1.67398830883343   -1.07524615148958   -1.58807222324445
H         1.87575812820009   -3.33549259328784   -2.57829554779269
H         1.84308384079038   -4.06118115949393   -0.96976153196024
H         4.17475357817161   -3.86678551112384   -1.78862930880245
H         3.95989324019648   -2.12889160616667   -2.01640528799577
H         3.80031136269456   -3.61809939690952    0.64395075256969
H         5.13861254583930   -2.60067304283775    0.08945495991446

