55
CSD_code = SIRLEM | q = 0 | S = 0 | Stoichiometry = C24H14Cl2F10N4Pt | MND = 6
Pt       -7.37299834805890    1.53824920147771    9.81635587230867
Cl       -5.04261628907256    1.44801081895140   10.23815435222293
F        -9.19056547215386    1.64065160037327   12.53078870608234
F        -8.84874366030770    2.20850244340559   15.12843651309940
F        -6.95508970556911    0.86325028509216   16.60501523616482
F        -5.41431283168910   -1.02898754295700   15.36166248086222
F        -5.60647707964834   -1.48255429365084   12.76335554377734
N        -7.54133879989031   -0.02253532696659   11.15574819227327
N        -7.54805341117497    3.16955820294004   11.20620000303565
C        -7.05428662362232   -1.22298497391995   10.50737468831497
C        -7.35296360928146    0.14351325200558   12.47922347917869
C        -8.19122458102815    1.03065639790039   13.19835236621070
C        -8.05435011983428    1.29689144796658   14.54575092155215
C        -7.10435296430519    0.61315827780957   15.29746634338281
C        -6.31878688444352   -0.34026956070350   14.65725511852280
C        -6.42772717339842   -0.56006671114332   13.29314599725628
C        -8.60418689146926    3.97706370467937   11.12811789249588
C        -8.83847188515378    4.97801374348373   12.05385091362044
C        -7.94624935962943    5.15103311817501   13.10028797327950
C        -6.83982403124963    4.32010526021396   13.16473517647234
C        -6.67871758043865    3.33965315631911   12.20051169674532
H        -5.96167935096118   -1.23556251624327   10.40158567020450
H        -7.37229539107106   -2.10026431342818   11.07816256936637
H        -9.30530103690388    3.79039321731782   10.32545391514897
H        -9.71646069481485    5.59597035652476   11.95978211770624
H        -8.11262932140036    5.90876684988390   13.85009599101743
H        -6.11407356569312    4.41356735107494   13.95637958099270
H        -5.82090068686200    2.67897299504425   12.21440333533868
F        -5.55550315264051    1.64072832738551    7.10183686232168
F        -5.89686909788279    2.20831587399010    4.50407968985209
F        -7.79015301463650    0.86279801578903    3.02726004588974
F        -9.33100523359869   -1.02945812202383    4.27048100863471
F        -9.13933096923077   -1.48275571379912    6.86887006010468
N        -7.20493077683308   -0.02244880915877    8.47673049393533
C        -7.69199066934011   -1.22292032163503    9.12507623964437
C        -7.39305340573775    0.14350428124966    7.15320610565474
C        -6.55469180311880    1.03061381020292    6.43414642904639
C        -6.69131458902596    1.29670647300539    5.08669512856135
C        -7.64111859829918    0.61283611662915    4.33486004064661
C        -8.42673216063666   -0.34059514717968    4.97500449619986
C        -8.31805352595784   -0.56024409827275    6.33915636403304
H        -8.78460008396301   -1.23547832506762    9.23084789059079
H        -7.37398992627947   -2.10019573926156    8.55427718429993
Cl       -9.70321447351904    1.44777905405816    9.39378140266968
N        -7.19786019359162    3.16940580164868    8.42624397629466
C        -6.14174302346996    3.97692116976113    8.50450520073916
C        -5.90743656052262    4.97802924641837    7.57894008636110
C        -6.79960218233743    5.15117969772152    6.53247300858375
C        -7.90601454257634    4.32025254833532    6.46784549354545
C        -8.06716128341512    3.33965850564176    7.43192310815164
H        -5.44070471481850    3.79017977138966    9.30722505907344
H        -5.02946191917817    5.59598863008427    7.67312962199218
H        -6.63316528328729    5.90899656983912    5.78275861910195
H        -8.63170396458987    4.41381519058706    5.67615542508067
H        -8.92501750238767    2.67903075103522    7.41793831235773

