66
CSD_code = SIRMIP | q = 0 | S = 0 | Stoichiometry = C37H25BrFeO2 | MND = 8
Fe        0.61378386104435    3.38757316669643   19.50787627003081
Br        2.30849086289038    4.91524530444521   19.57401135459126
C         1.43899078497709    2.22045709909501   18.49855364521716
O         2.00196556614657    1.39475875771904   17.94166355362066
C         1.22464368255924    2.34491320848370   20.76940486591847
O         1.65125412927836    1.60674772698145   21.53200125259136
C        -1.22970721367691    4.73017646371598   20.28758697851223
C        -1.48892585346495    3.33762451381021   20.35748015006421
C        -1.43195215820315    2.80593492168549   19.01538507548605
C        -1.23185008746247    3.91040574638093   18.11256832291009
C        -1.07640826299258    5.08263955501400   18.89312664722194
C        -1.31500091520170    5.68563321250121   21.39815432146450
C        -0.35030283688937    6.67541516887425   21.57608876381089
C        -0.46340582640475    7.57651306747472   22.61787607918738
C        -1.53811801413205    7.50819617069038   23.48872190978324
C        -2.50471567238554    6.53176646620848   23.31280579635951
C        -2.39692522694138    5.62485728653520   22.27591300645789
C        -1.87015862280773    2.59690652006183   21.56569627848684
C        -1.16689069056825    2.77197719024203   22.75690029408693
C        -1.54206872226887    2.09046560312775   23.89744516202699
C        -2.62541721055827    1.22656843305906   23.86756698489045
C        -3.33549056487092    1.05449304851892   22.69186104287235
C        -2.96416791201284    1.73490335562819   21.54662198191321
C        -1.85374715485023    1.45370065469220   18.62714805939650
C        -1.27798887455990    0.33028708863334   19.21627565140977
C        -1.69269274191604   -0.93804643337347   18.86010128695313
C        -2.68795634126158   -1.10335277102375   17.91022987048463
C        -3.27015168208596    0.00747212212754   17.32401877571403
C        -2.85962489464224    1.27922000692922   17.67908985312952
C        -1.33239921930963    3.84958244627565   16.65118766285084
C        -2.07980624578212    4.80517808943535   15.96434173766296
C        -2.20251334077737    4.73987169436531   14.58925144499855
C        -1.58834860007231    3.72123841907059   13.88039768945285
C        -0.85063177363242    2.76273237997047   14.55576282008346
C        -0.72268913616496    2.82558526333152   15.92955282566898
C        -0.88657349439242    6.43637606274540   18.37290417093801
C         0.05936154081602    6.68780399172962   17.38028413647866
C         0.22713210137590    7.96656029237835   16.88710543786650
C        -0.54961680803830    9.00729157101342   17.36932122657097
C        -1.49853349509504    8.76319444571691   18.34808493250836
C        -1.66672746900074    7.48781740046400   18.85234246102278
H         0.49752491200171    6.73137307852532   20.91082306387130
H         0.29466673509607    8.33380269444491   22.74881044186522
H        -1.62396749998663    8.21366218420287   24.30178020312705
H        -3.34859109568038    6.47580293524165   23.98482166537461
H        -3.16011892947437    4.87303452165461   22.13413983354189
H        -0.31777967205591    3.44110631998827   22.77956066620111
H        -0.98510144961525    2.23041754634529   24.81163235581923
H        -2.91545283443881    0.69079750703010   24.75889054064024
H        -4.18475858112448    0.38791725250390   22.66387308896290
H        -3.53122318019459    1.60812207452504   20.63631715008004
H        -0.49290949151987    0.46371252785803   19.94814421377183
H        -1.23473953806694   -1.80023938970015   19.32105190316294
H        -3.00766533446396   -2.09527133334519   17.62857182817411
H        -4.04920700717647   -0.11425531070655   16.58613551770463
H        -3.32590051615807    2.14315548155096   17.22863165948489
H        -2.57430323732322    5.59341132712952   16.51286706121060
H        -2.78371849935791    5.48745104885412   14.06998296206844
H        -1.68417026506719    3.67389239980020   12.80611311428905
H        -0.36857691829393    1.96518532095514   14.01041733714862
H        -0.13807350749833    2.08320688131945   16.45284886795763
H         0.67739647259538    5.88162733228194   17.01264273634023
H         0.97125564742893    8.15192154623774   16.12762939751702
H        -0.41521128210022   10.00703186058325   16.98427950698261
H        -2.11058570842934    9.56972137875953   18.72417048517401
H        -2.41710468576193    7.29942810252824   19.60625461883553

