58
CSD_code = SIRMUD | q = 0 | S = 0 | Stoichiometry = C23H24N2O8Zn | MND = 6
Zn       -4.66186227132387    7.40811145002501   11.70782918072874
C        -5.72023188062662   12.30881740546579    9.02524117048654
H        -5.70048113652193   12.98798383540847    9.87637320878512
H        -6.73007271229674   11.91098707248208    8.89778390301876
H        -5.40589962387563   12.85193322266143    8.12859356441729
C        -4.82503690803052   10.16119441440563    8.55977635881485
C        -5.30036941151746   10.14813928054072    7.25666393234792
H        -5.68586751389621   11.05248505221172    6.81530612479181
C        -5.31540215492676    8.97456962005214    6.51632637197177
H        -5.68561871032150    8.99230612301856    5.50318155820550
C        -4.90082638918869    7.79485435280354    7.08378123420241
H        -4.96422295466575    6.87247615698755    6.52690540049765
C        -4.44041644686764    7.76271704199686    8.40871833288049
C        -4.34729769999864    8.96611667727954    9.13113708168445
C        -3.09574699065895    9.87133196074995   11.02127753443019
H        -3.64235350311876   10.80012175273592   11.19907045732562
H        -2.20080449561577   10.09000234077278   10.42825541093121
C        -2.66856993418712    9.25984052538266   12.40428894125748
C        -4.19442034815916    6.46389382050599    8.98587603800846
H        -4.13921434183784    5.65242057617675    8.24897394242189
C        -4.00702252563061    4.78871299279422   10.60906653774118
H        -3.09558584376147    4.67202479931160   11.20304752199457
H        -3.93979664189517    4.14092493984681    9.72243541548674
C        -5.22655879827522    4.38941006707332   11.45268952467573
H        -6.10128652727245    4.91810578212326   11.07101028810771
H        -5.39247652726837    3.31606385015844   11.34313200505495
C        -5.07059470297780    4.69344588064130   12.93906499583103
H        -4.13859205782550    4.24381270873017   13.30586608587105
H        -5.90326506895602    4.23092375688754   13.48470281672619
C        -4.99557132548986    6.47619787914878   14.43814736715098
H        -4.97713915947028    5.69877540553373   15.21148134112068
C        -6.84624617471614    8.96978211042202   10.93425648010635
C        -6.48066312824229    9.68264356387448   12.28710085813813
H        -5.98728954039665   10.62988303176911   12.06121124063348
H        -7.39541196910541    9.88115702484050   12.85623544914695
C        -5.13405781287933    8.97380178764879   14.20819710143166
C        -4.87378228579981    7.81328357433369   14.96162134168934
C        -4.37205504080487    7.94154990136533   16.26583488896746
H        -4.18310643995017    7.05137929566896   16.84611945652301
C        -4.06998390225329    9.17850611953805   16.77902020417703
H        -3.66412928722214    9.27267209364665   17.77403893028680
C        -4.24630195991308   10.31612323622225   16.00425570632981
H        -3.94740615833456   11.27248879954239   16.40052162160541
C        -4.77303165674806   10.23332806286941   14.72369323454841
C        -4.12379538195030   12.44332587997167   14.15321452761400
H        -4.25343996700077   13.08806567916966   13.28505469045790
H        -3.07519549219650   12.14658772631357   14.23753683028306
H        -4.44379470217939   12.98422223674084   15.04906765943101
O        -4.82129973581559   11.26988882320525    9.35061917297891
O        -3.88170709341372    8.87435999974453   10.39608481204149
O        -3.01768283111467    8.05943843723795   12.58752060146836
O        -2.06028130998125    9.98031516177820   13.17435496342478
O        -7.52386488371282    9.58936090264540   10.13571059168566
O        -6.37767376807395    7.80299374674632   10.80532512414359
O        -5.64889323100021    8.76934598242910   12.97788741635793
O        -4.93310833810987   11.31195582765804   13.90664078395245
N        -4.10942283410324    6.17111752308247   10.22279328340901
N        -5.04737046852905    6.11592272762412   13.21397938219426

