34
CSD_code = SIRNIT | q = 0 | S = 0 | Stoichiometry = C16H12NO4Re | MND = 8
Re        8.86011714377731    3.21749645797278   12.61461092377933
O         9.04916768170400    3.58027675052165    9.47304461426816
O         8.42373042774898    4.39270668398281   15.43351127411869
O         8.85359893827059    5.99364745988780   11.26464402116765
O        11.93373858644884    3.18394601090653   12.88325967212478
N         7.11554050934764    2.59890173236055    8.62255158606140
H         6.44031380682903    1.84946059045337    8.64049184966916
C         6.93247242239379    2.36928999944981   11.54202640323775
H         6.09373137971915    2.93583329281658   11.16680200448244
C         7.01556374071561    1.73381812156057   12.80446631872225
H         6.25699259156016    1.75214245968161   13.57297226989875
C         8.19880446994804    0.95255765621670   12.82802106295116
H         8.46911602320243    0.24400044923366   13.59646305863986
C         8.81981062470629    1.06245944633672   11.55326593069657
H         9.67099892170948    0.49160523355217   11.21222058166699
C         8.03808711921505    1.92940175937761   10.76022878498916
C         8.33724097108469    2.36749834677866    9.35834465728284
H         8.98156865399590    1.61482174475129    8.84446413167042
C         9.43869081143903    4.12557188380578    8.22746850993768
H        10.30451108042448    3.56531297847481    7.83267077615467
H         9.76196264860727    5.14515010522090    8.45113212336314
C         8.32476391050644    4.12093934194451    7.21458488383857
C         8.39479698753399    4.88126739988160    6.05920614533740
H         9.26686000462129    5.49598299413871    5.88942206234198
C         7.36657986956921    4.85697514844401    5.13385952026162
H         7.43206183551061    5.45322285829420    4.23694536749097
C         6.25162110798798    4.06740283765671    5.36684941143254
H         5.44410079014091    4.04554250332808    4.65018720527747
C         6.16748475790095    3.30149073323200    6.51185554323432
H         5.30109200581986    2.68221987275580    6.69738423911389
C         7.20274536697331    3.31895806513826    7.44408259486547
C         8.62542444704181    3.99223860667323   14.37751308107506
C         8.88502716998013    4.98131206712772   11.79067543787405
C        10.79178319356198    3.24704840803937   12.81267395296702

