48
CSD_code = SIRQUG | q = 0 | S = 0 | Stoichiometry = C18H27ClORu | MND = 10
Ru        5.52499998233563    1.86025106020606    9.81040739242970
Cl        7.53000024251538    2.47780373827220   10.90532652250313
O         4.70873826414219    3.83788413406661    6.93080604061865
C         6.75952610828012    0.45214425834009    8.69460090895738
H         7.80567396209466    0.60105076986359    8.96236025606153
H         6.47869384172602   -0.59600624758424    8.60383655529908
C         6.13041824667213    1.36614045130212    7.81486285059960
C         6.50987520846056    2.73630531629156    8.03631054252714
H         7.55546042961421    2.93150983505323    8.28964895062714
C         5.79563424194611    3.88262753981368    7.49788790509127
C         6.49643746910375    5.20538759451682    7.72852437963574
H         5.82448576441343    6.03258003723536    7.51409529580470
H         7.35775978342087    5.26818588646434    7.06542396322835
H         6.85440648017410    5.26529688939202    8.75348803455152
C         5.21276079034076    0.92214333187889    6.71421470111006
H         5.80053880913233    0.88015184093861    5.79509661501392
H         4.40433574369040    1.62902399080825    6.55150808596578
H         4.81952743321979   -0.07347666264859    6.90657749986166
C         4.67999982864143    1.57266590443678   11.87802706274659
C         4.14682675020305    0.52008483051353   11.10281369008096
C         3.49010734857311    0.82343962060942    9.86905960314255
C         3.23689662834576    2.17531975468118    9.50669233558249
C         3.74981383673229    3.23805767941228   10.31234657737075
C         4.45763283871226    2.94454982639413   11.49964446978532
C         5.41636584522659    1.27937264818280   13.15816809755790
H         4.73864702954911    1.34008201182461   14.01227137803299
H         6.22424425588740    1.99355062095497   13.29786790666375
H         5.86489618664441    0.29050340282027   13.13272890967482
C         4.17759815923682   -0.89560611027980   11.62323465565891
H         3.33578000359620   -1.46605734232879   11.24102278442437
H         4.11194032525687   -0.89870672301155   12.70855767084467
H         5.09695379285632   -1.40580906334505   11.33657762193869
C         2.92173185186985   -0.31360431846301    9.05795016453962
H         1.95068801059995   -0.61218685256211    9.45911608921880
H         3.58540166617951   -1.17469248014976    9.08634654180790
H         2.78876260930881   -0.03545177385970    8.01765142931940
C         2.30008178330224    2.53394873662971    8.38650940557423
H         1.55308914671547    3.23604690053474    8.75559523891012
H         1.77768414741870    1.67014076406250    7.99060752768948
H         2.83834113987516    3.02010571492151    7.57257591341282
C         3.45908266039470    4.65845975079720    9.90941719173242
H         2.49522911407471    4.97602219438252   10.31192225755652
H         3.42495735167158    4.74849528859028    8.82725121158951
H         4.22796978853355    5.33593871684541   10.26899014945430
C         4.89740666502417    4.02553287987308   12.45080753856082
H         4.67735152201777    3.73461157809756   13.47614095120833
H         4.39306169496697    4.96592695039693   12.25382971622911
H         5.97488521732748    4.18175512478798   12.36489940981465

