30
CSD_code = SIRRAN | q = 0 | S = 0 | Stoichiometry = C12H15ClORu | MND = 10
Ru        0.65170201457245    9.21981361384755    1.29857690233377
Cl       -0.24193163708295    9.31475725399909    3.47613037700279
O        -0.14329523641879    6.46521916316639   -0.62520590286735
C        -1.06940459824751   10.43214106224967    0.73240673285198
H        -1.74655937942677   10.52844897742275    1.58121045662878
H        -0.92721893450580   11.35579479235066    0.17482524493408
C        -1.04096962165644    9.22069557571669   -0.00102338953946
C        -1.14925072279213    8.05305797382944    0.83131146454282
H        -1.85292387493474    8.09392810115870    1.66740367216901
C        -0.80739851102801    6.70380221685906    0.37245229798537
C        -1.30873341252744    5.59885100374004    1.27308158286657
H        -0.90622111295134    4.64056260211823    0.95529594970377
H        -2.39587659315073    5.56548318749758    1.22787058484093
H        -1.02102963758755    5.80417174603002    2.30180801307975
C        -0.92401620059081    9.18833728030798   -1.49696774812386
H        -1.93411920263278    9.22615216595668   -1.90890557238504
H        -0.45521393433238    8.27000300065902   -1.84009836046842
H        -0.37795292111966   10.05282667677792   -1.87096922630576
C         2.20017392953642    9.90237827214046   -0.18168735246474
H         2.12292738426976   10.46704214180619   -1.10438676657385
C         2.48453885908775   10.57773964581117    1.03154495354544
H         2.60642825141817   11.65448728490469    1.04273786744849
C         2.63820348009661    9.83414634818610    2.20740492254790
H         2.86526675430398   10.33398533645453    3.14385812075028
C         2.58254684228204    8.40936389978213    2.17397698412415
H         2.77205978632465    7.84936812982282    3.08357485199780
C         2.38312302908927    7.74483073240881    0.95744390018594
H         2.41409610462801    6.66353008714260    0.90726601907674
C         2.16836633813299    8.49195571282942   -0.21984185406998
H         2.03938275724391    7.97482601502378   -1.16209472581830

