48
CSD_code = SIRSAN | q = 0 | S = 0 | Stoichiometry = C22H17NO7W | MND = 6
W        12.34771642251298   12.30930208303309   10.50387056383729
O        14.13826913622029   11.33719633856268   12.89114060317209
O         9.76097432984785   11.89126718666478   12.22903622089017
O        11.56543092301660    9.40545890303679    9.62835482557069
O        12.41522065718621   15.20949393225296   11.70293867895065
O        10.56145539033521   13.39634309210878    8.15816507274910
O        14.53856979708575   10.24781822415646    7.09780046520887
O        12.52891356597610   11.24055531999340    7.25402542988489
N        14.97426008387172   11.98992319913200    8.62545445246739
C        13.48269221478496   11.66835857045887   12.01073554220664
C        10.70237532244842   12.05173306764592   11.59774217793431
C        11.96984975507818   10.44620580449777    9.88717316377931
C        12.47329747743025   14.17458690885162   11.22147500094098
C        11.22287685154288   12.99009079784600    8.99121201554473
C        14.14811902961221   12.70715842511110    9.34516943409652
C        14.51255324902358   14.13413683163124    9.43390875680860
C        13.88819788367895   15.08250805960772    8.62415418197524
C        14.18468136355782   16.42458496193347    8.77037306572012
C        15.10434657957263   16.83787273718321    9.72058998818540
C        15.73631966099822   15.90016923578876   10.52014649121101
C        15.45378375552485   14.55493577479072   10.37294420179419
C        16.13173385761075   12.52030037650049    7.91634662389385
C        14.81066564905983   10.55262564070180    8.46179236067385
C        16.04953460215614    9.82420231728619    8.92380765576027
C        16.87305768850152    9.13020022578677    8.05049843919148
C        18.00519000174375    8.49196517527355    8.52913259273322
C        18.32173436574673    8.54975019225603    9.87484582991084
C        17.50038836350962    9.24447116270623   10.74861106596903
C        16.36676137196564    9.87848539679902   10.27636711801484
C        13.33347791717270   10.61894414601814    6.61769739455393
C        13.15794252346274   10.14143446832887    5.20539144895553
H        13.16565789506158   14.75682704641882    7.88818762651787
H        13.69107432186953   17.15178328869302    8.14278080547601
H        15.32446015653128   17.88780576678567    9.84004342663385
H        16.45372972216022   16.21726521891809   11.26252564271661
H        15.93796808322219   13.82255325583355   11.00538158455895
H        16.33026474456711   11.89865727295801    7.04464294962544
H        17.01049284331310   12.50893088599411    8.56399592876116
H        15.93934177491510   13.54279690613201    7.59740402492043
H        13.94838818580451   10.26211137871760    9.07883659434113
H        16.62124220031679    9.08248870837828    7.00271781509011
H        18.64091847061272    7.94884200518154    7.84610044603206
H        19.20509282141172    8.05144772949840   10.24464063577059
H        17.74000368560474    9.28838189316962   11.80005058116351
H        15.71805434381845   10.41645908158979   10.95212568536466
H        12.35421828552526   10.69479300009727    4.72979306540905
H        12.89568446998157    9.08519139119826    5.22920301728081
H        14.08471820510000   10.25158661449595    4.64986930773474

