59
CSD_code = SIRYOK | q = 0 | S = 0 | Stoichiometry = C19H33MoNO5 | MND = 6
Mo        3.78076472846418    3.50969804636150    5.78030953935326
O         2.30125045050578    2.53675695052335    5.76226942564118
O         4.59329274084646    4.61347441212467    6.97141343768843
O         3.46078539714276    4.64105504956890    4.61722818751644
O         4.99006350349060    2.44203580153170    5.42262114065250
O         1.82748573014980    5.17028569545339    6.93204445789418
H         2.48465855820855    5.80822568665477    6.62044876418989
N         3.56363402290752    2.43914045945232    8.11105086625633
C         1.61257240629954    1.46180690559389    6.13912228155978
C         1.00819341242029    0.58799303787568    5.21285891636993
C         1.17566554542879    0.82635138186735    3.71617503377541
C         2.65618321885576    0.62793985429473    3.35438870314521
H         2.97605746715811   -0.37939905252181    3.61605800215467
H         3.29623272693184    1.34720616262441    3.87729956261521
H         2.79528221643592    0.76789681145668    2.28455473498114
C         0.74046446387479    2.25332564750527    3.34732314032851
H         1.44824046872195    2.99059967514487    3.72987353560694
H        -0.25039662020053    2.46381588865511    3.74724138271865
H         0.70355136033694    2.35670368102948    2.26488912986979
C         0.34331049129429   -0.14997637963473    2.87521375934563
H         0.47782463076154    0.08151431895487    1.82104181510365
H        -0.71594556388778   -0.06243477082360    3.10679334173842
H         0.66214215478097   -1.17794533921117    3.02965170613841
C         0.31036576012569   -0.49666336944969    5.72014689083432
H        -0.15942019561505   -1.17340190289302    5.02816889823414
C         0.18527854987627   -0.76664674548879    7.08127817532388
C        -0.60318775154064   -1.98952818022352    7.52694568616890
C         0.04258535979135   -3.24958481177342    6.93352141241007
H         1.07843947389824   -3.32843233947940    7.25619180443216
H         0.02528027340174   -3.23060504714147    5.84783235668222
H        -0.49165541034590   -4.13688592366703    7.26646319875367
C        -2.04995980986258   -1.86353511350729    7.02958699493986
H        -2.09325744260046   -1.81148873388394    5.94564456695246
H        -2.50801853327186   -0.96284219673048    7.43246086538396
H        -2.63382955345831   -2.72270230613014    7.35293964409354
C        -0.63549285021739   -2.14487782148385    9.04984333188860
H        -1.21228184635391   -3.02964778001856    9.31141247342180
H        -1.10738256814734   -1.28588748218023    9.52087301298871
H         0.36733165185208   -2.26819243870736    9.45177147959619
C         0.80347560387681    0.09936099257343    7.96915671965845
H         0.75018061542627   -0.06471527568437    9.03363767535868
C         1.50710350866939    1.20274962174588    7.51324932715902
C         2.16487594716113    2.16325521238795    8.47181941193093
H         1.62181629526331    3.11770995243282    8.44677322068686
H         2.10923728905502    1.75416215127068    9.49522589641386
C         4.33920544506322    1.20195237642263    8.15695394149334
H         3.89404098146605    0.46899293703016    7.48463684482425
H         4.35804156942159    0.78693465830901    9.17599701997352
H         5.35704530938869    1.39088064286248    7.82193579178833
C         4.15739774238149    3.45414075159122    8.97463138991048
H         4.60721117194813    3.01763405663698    9.87845520487087
H         3.37918906979648    4.16753203489254    9.26738127361880
C         5.20005304017478    4.22698093937810    8.15007235407605
H         5.54655582180557    5.11195000693783    8.70989553049514
H         6.06882471039297    3.58288615439224    7.92506861145952
C         0.71116738636412    5.25540293516332    6.05891148681678
H         1.02544390417247    5.17230062419037    5.01592288663647
H         0.18269663173483    6.20302783941802    6.21245016410638
H         0.04442933811024    4.42861365617970    6.30517359184161

