102
CSD_code = SISBEC | q = 0 | S = 0 | Stoichiometry = C48H45Cl2MoNOP4 | MND = 6
Mo        1.73103341223376    2.01728747902098    4.40135669449532
Cl        2.90505624262791    4.16718404314523    4.19323101911486
Cl       -0.40683932153754    2.99831008707753    3.62294933415646
P         2.70392712581237    1.96901182443770    2.24123289714954
P         3.94690575332598    1.59354207032173    4.99288335084356
P         1.73673411866223    3.00976564286304    6.56186828451156
P        -0.97103407547982    6.53043645129250    6.60160295500076
O         0.76785158867652   -1.62365861126922    5.47404989782742
N         1.03026568436451    0.43573198479909    4.57558313905040
C         4.57856388719664    1.85279923150807    2.31273392675072
C         5.16482663187947    2.09974059385430    3.70349715367537
C         4.46034658850705    2.49961375688919    6.47781288473665
C         5.77839131888528    2.52814162731817    6.91521665569251
C         6.10411639310175    3.21814543125889    8.06891437931233
C         5.11323313323054    3.87359662053329    8.78242351627759
C         3.79603217222208    3.83628990824477    8.35596130181315
C         3.45112618768430    3.14101542813753    7.20127985629784
C         1.05364503413912    4.65859339483477    6.99985269121266
C        -0.40219004081923    4.75219344945838    6.56484168636734
C         2.45429620051826    3.13612427418669    0.87376785644113
C         3.15174516513922    2.97760023041706   -0.32351059827505
C         2.93626672053231    3.85707260474152   -1.36641860929373
C         2.02247476911256    4.89143335021444   -1.22590712378560
C         1.31779954318864    5.04080346316425   -0.04400959896834
C         1.53125084520803    4.16593055206676    1.00845054880719
C         2.25679683433160    0.37379936997920    1.50673797335248
C         2.68545622018346   -0.77993384567288    2.16026759864629
C         2.28433133221620   -2.02310090323279    1.71230092828945
C         1.44081591934645   -2.12400968733906    0.61544450994311
C         0.99234743362432   -0.97896484209482   -0.02191732117622
C         1.39121845524838    0.26987455904995    0.42351453042023
C         4.33729027361522   -0.10605891778216    5.46409481251131
C         3.53777505448015   -0.60600619023841    6.49058163459621
C         3.66953832119542   -1.91723208954965    6.89910321650955
C         4.59677732617989   -2.74111191892697    6.27927957972413
C         5.39047842388750   -2.25065931138777    5.25624293292607
C         5.26429971140577   -0.93525567326833    4.84289686517699
C         0.90161424839168    1.90318355673857    7.73249192900540
C        -0.32998085393613    1.40724082907595    7.30768044906763
C        -1.03624331439516    0.52908167999690    8.10694532325501
C        -0.51400154459817    0.13159436466407    9.32793051760174
C         0.71118358514750    0.61873258429919    9.75052750672701
C         1.42130225857002    1.50467581841111    8.95854675910167
C        -2.40057223164014    6.41822038814696    5.46439115799206
C        -2.72959958204680    7.54950747380998    4.72184560700558
C        -3.83395104438013    7.54613670495655    3.89230945945065
C        -4.63272972649983    6.41725707656205    3.80636325894648
C        -4.32440918702208    5.29792078765218    4.56008761406510
C        -3.21954126041658    5.29793035896748    5.39271996547493
C         0.26190163342365    7.19196007303480    5.40871575824595
C         0.42025820761724    6.66193912529694    4.13143976898675
C         1.38778320003708    7.17915116431727    3.29081313095590
C         2.19695528872289    8.22348999062844    3.71037768925610
C         2.03864486415425    8.75724438219058    4.97722779151011
C         1.07334712943590    8.24088000904261    5.82393515314618
C         0.42732866363724   -0.74198634938178    4.70196682239503
C        -0.76857903519564   -0.88873026721988    3.76242996564238
H         4.83390897905818    0.84518986201806    1.96713803703162
H         4.99098718741048    2.57450032624521    1.60107852836883
H         5.34429432716601    3.16941340193411    3.86220590200758
H         6.11607658347321    1.57353867514972    3.83338606445417
H         6.54094303203813    2.00992325166961    6.34915618897015
H         7.12764636623720    3.24741223332577    8.41182570622571
H         5.36741608264912    4.41675692938976    9.68068373440376
H         3.04071767484147    4.35117606243011    8.93142460316967
H         1.14821361504327    4.82728226613436    8.07753615621916
H         1.66716030256940    5.39792957918433    6.46816588546621
H        -1.03285513299046    4.17551853183166    7.24898969208234
H        -0.52800727312032    4.36256501742400    5.54796422326764
H         3.84670703087980    2.15528434563045   -0.43791385861468
H         3.47608817510440    3.73436607529330   -2.29436943053572
H         1.85627631141541    5.57556713206008   -2.04516163154265
H         0.59456313753655    5.83701464028000    0.05708633772640
H         0.97497905870826    4.27066589223279    1.93094030416180
H         3.31874922273426   -0.69747896970722    3.03659293643190
H         2.61694288240786   -2.91222653589773    2.22732976690822
H         1.12295463635562   -3.09575522335933    0.26740781843545
H         0.32204801520053   -1.05738550766596   -0.86542128626742
H         1.02857515629632    1.16408905458351   -0.06497147148104
H         2.79572892604316    0.04210877224017    6.94463227901598
H         3.03545196403289   -2.30160433337572    7.68242590376957
H         4.69484036771761   -3.77139168815522    6.58745259881543
H         6.10663508013225   -2.89677480199207    4.76872794332267
H         5.88056175825800   -0.57218625580723    4.03127623679125
H        -0.71864955318673    1.70678253238456    6.33935283602997
H        -1.98824237469393    0.14330658312897    7.77402774975210
H        -1.05924918564372   -0.56531451924323    9.94688718303194
H         1.12118894038366    0.30353127364082   10.69919886144789
H         2.38475994587068    1.87051132933966    9.28746337883509
H        -2.10376868235696    8.42994542737015    4.79168951563777
H        -4.07369711096473    8.42536836859025    3.31100162152328
H        -5.49501304493049    6.41183974965701    3.15522060443814
H        -4.94784088764663    4.41731572659682    4.49881141879360
H        -2.99518298461035    4.41896114846933    5.97805805721785
H        -0.20845024907410    5.84671737701551    3.80012486928402
H         1.52223510201702    6.76309991630325    2.30323965551210
H         2.95328172821372    8.61890247337749    3.04731589434147
H         2.66834619517788    9.57167877518013    5.30689109211046
H         0.94240206928360    8.64766744486394    6.81815873977530
H        -0.40987630113240   -1.28123253469878    2.81156760321568
H        -1.22480803841147    0.08554385654488    3.58772986773592
H        -1.48760071814644   -1.58279885099152    4.18871489481468

