107
CSD_code = SISGAE | q = 0 | S = 0 | Stoichiometry = C52H49ClN2P2Ru | MND = 5
C         5.13424745264122    1.34865911832055    6.20420810546126
C         5.75988458175365   -0.03971456083170    7.80868947970137
H         5.72439068573007   -0.51467292857943    8.76781320513695
C         6.59349945843510   -0.22174671527959    6.75517198801603
H         7.43150890995892   -0.87616968318502    6.62955367330936
C         3.89618253498812    1.43245396188144    8.37616837180867
C         4.26657473665322    2.44956955475509    9.25860188481689
C         3.31057185672111    2.92189914689438   10.14309860904389
H         3.57583054342801    3.71904760532461   10.82089324096887
C         2.02359693934474    2.40085385255473   10.17068855197817
C         1.70272375746858    1.36023749430117    9.31035516176162
H         0.71189581312688    0.93041764616978    9.33951261956071
C         2.62905765108931    0.85319360118172    8.41014293009434
C         5.65899052149823    2.99093606216397    9.25093670604858
H         5.92660082937058    3.35160168473693    8.25687469543023
H         6.37349531819706    2.21806639018265    9.53718828970786
H         5.74854149876638    3.82183716629279    9.94367348015429
C         1.01344514132954    2.93341681375028   11.13882896890327
H         1.15208449584016    2.46718982955045   12.11411368196777
H         0.00159819610205    2.72242419128066   10.80355976332404
H         1.12988735831687    4.00709316111208   11.26285597130740
C         2.28266384834486   -0.30858608177867    7.52758431249947
H         2.80804349744051   -0.26435543880214    6.57594127515871
H         1.21254493577982   -0.33917548288599    7.33788303812115
H         2.56129715645149   -1.24096650280716    8.02107636917900
C         6.93266180938867    0.93099817910852    4.59567684350084
C         6.88953539509236    0.04850107018086    3.52455062071735
C         7.66571696388093    0.32488247176703    2.40823955815291
H         7.64412550138324   -0.35277651174238    1.56749652389663
C         8.47983516505222    1.45565924332639    2.36442688247516
C         8.50287762846935    2.32472815277274    3.43923099214472
H         9.15554529727069    3.18954976216918    3.41774611064851
C         7.73502468406825    2.10277867999934    4.59949870620079
C         6.02088208537357   -1.17474736332174    3.58179162446434
H         6.44919726865170   -1.92355775156825    4.24952508444424
H         5.92646141189917   -1.61667126830697    2.59350645935908
H         5.02313237485130   -0.92719194765901    3.94493837202490
C         9.36562142159486    1.70046935871969    1.17924694499461
H        10.33085216332340    1.21682240962214    1.33673598464504
H         9.54516159252432    2.76433200813216    1.04088797307303
H         8.92976558970604    1.28560728720498    0.27235638734537
C         7.74580847348847    3.03576680611748    5.70990561859073
H         8.67420813265416    3.61076695816974    5.76403748512722
H         7.54617476047573    2.56878751474333    6.68035736694729
C         3.71324337816332    1.82100981160339    3.89857982684200
C         4.28749446173767    1.70616712778304    2.63770487077253
H         5.24646031205499    2.17676058760410    2.45704120001461
C         3.63440156968527    1.01929815613848    1.63156624138101
H         4.08522513113946    0.93689344753047    0.65337225198874
C         2.39676553021377    0.44834453961575    1.88149856945198
H         1.88018330552810   -0.08722247422982    1.09830367264222
C         1.81222804912892    0.57410673361838    3.13211448708412
H         0.83987183855896    0.14024693785776    3.31824172341483
C         2.46469293924266    1.25994088006397    4.14094265407530
H         1.99937097975803    1.37778789945014    5.10892253662725
C         5.40648610270793    5.03617013111853    6.42368102713527
C         6.12436831181040    5.97442776644484    7.15967089834996
H         7.14117827566762    6.21445994088907    6.87194840793482
C         5.56134425968495    6.61250289459946    8.25420958889990
H         6.13914501677633    7.34088504549757    8.80676209565511
C         4.26164920835110    6.32596582389301    8.63469071371186
H         3.81414880859659    6.83406232123419    9.47738040493743
C         3.54024886317849    5.37314080732079    7.93463324963962
H         2.52980369746330    5.12557276787569    8.23542180167870
C         4.10560846219055    4.72339192458801    6.84924655965519
C         3.34984636364285    3.63356853064109    6.12581900632726
H         2.64483930968287    4.06107002148799    5.40281212685016
H         2.79165114014478    2.99234680221825    6.81203024510539
C         5.25645527496080    5.13700496320221    1.55647355808653
C         6.32211457776272    4.30255604973208    1.24246603379614
H         6.99433185733624    3.98487180928929    2.03694379093165
C         6.53066568513456    3.89254476314528   -0.06221949691374
H         7.35939323393110    3.24275192256508   -0.29999351552536
C         5.67271127278390    4.31641177758224   -1.06266085521287
H         5.83057525747747    3.99648529319103   -2.08277396865457
C         4.61161319536450    5.15549986866111   -0.75814688722635
H         3.94651916796315    5.49097979097188   -1.54143071343892
C         4.40116111366705    5.56725370111901    0.54432948468420
H         3.57191253175317    6.22008111830356    0.78239238572533
C         5.46272533866423    7.38964949309352    3.27567721980585
C         5.73501976758657    8.10175688984391    2.11460466465395
H         5.71522962469053    7.61089074779993    1.15216765664291
C         6.05666619881297    9.44626457938761    2.18783546301536
H         6.27206716207654    9.99267024627913    1.28028079243939
C         6.11387453691779   10.08830558817487    3.41233539515794
H         6.37041171067990   11.13682839422748    3.46241172088250
C         5.86083180866820    9.37746579853101    4.57439583710150
H         5.92397407149490    9.86735483449390    5.53566729890187
C         5.54135454362423    8.03528739036529    4.50771533920512
H         5.38286717692839    7.46445628304112    5.41385087779194
C         3.22402881818712    5.68399233822629    3.41592787483751
C         2.58384318562487    6.62112352581332    4.22105575041515
H         3.15962749376381    7.39663332385293    4.70438118840877
C         1.21354073330565    6.56635997503252    4.40432102824280
H         0.72758845863189    7.30202020369907    5.02903892369547
C         0.46505182591991    5.57321201598632    3.79435312595433
H        -0.60458721215364    5.53144298172780    3.94098611434567
C         1.09478809736826    4.63329514449317    2.99376460145615
H         0.51975914770740    3.85344472715389    2.51425773097892
C         2.46339830908932    4.68520387132199    2.80957766780641
H         2.94909714001755    3.94745405434315    2.18591156710828
Cl        7.93118077665054    5.72626331325551    4.09127078338857
N         4.87144450402461    0.94157482734291    7.46509041246312
N         6.20190772761117    0.64550056368473    5.78346510468302
P         4.65066278137384    2.79353049284772    5.13703498568242
P         5.04884218219465    5.61036878310520    3.30548158924401
Ru        6.23875016930928    4.23189518454483    4.73129539700073

