23
CSD_code = SISKAJ | q = -1 | S = 0 | Stoichiometry = C6H6ClMoO9(1-) | MND = 6
Mo        2.33979071730385    5.66302478042364   14.09458146184551
Cl        0.11153759304031    5.36108254148625   14.29855245894493
O         1.92902217157423    5.09059688159047   12.18944762273806
O         3.97041652414758    5.04383819661126   13.45940521460879
O         2.77314620559285    4.29322311871677   10.27252859578055
O         4.42926891651432    1.05690167656445   12.79516164765292
H         5.28777704199256    0.98789564147873   12.35711394149806
O         2.88119134148187    2.56677760057748   13.24527435971434
O         2.42067838171045    7.32014917947165   13.94827935134965
O         3.54719972495063    7.53979324820190   11.07633321663253
O         4.76980384064762    7.60973371014846   12.94991900907653
H         3.97342818218211    8.02636757143170   13.36718639204383
O         2.66047562064643    5.25215743265589   15.65216260697953
C         2.85493244799198    4.69105924217990   11.41680201856618
C         4.85531170399018    3.31068480704737   12.05662601106165
H         4.93929271642516    3.03195623381111   11.00174944073715
H         5.84225790615135    3.29237622784076   12.53027701133275
C         4.24153010360257    4.72052910745276   12.15226998747743
C         3.94365775631402    2.32073604140175   12.75866531228185
C         4.40584619530576    7.08267849738110   11.78335119842233
C         5.14312192263751    5.79216402654158   11.48129914275313
H         6.12902695960929    5.79769458638529   11.94749164244224
H         5.19378602618765    5.60717965059977   10.40882235605996

