42
CSD_code = SISLAH | q = 0 | S = 0 | Stoichiometry = C16H18Cl2N4OZn | MND = 4
Zn       -2.78935110189773    2.55903615065135   10.75463058563254
Cl       -3.01061813105556    4.76867604105116   10.80967993943088
Cl       -1.07586343362327    1.27315246381853   10.39409429803291
O        -7.03175352151076    0.81052026055570   11.69658956472266
N        -3.86282604117076    2.03311927884965   12.43753721624065
N        -5.52743287227900    2.09862981816197   13.85992559990754
N        -4.43224758455548    1.98522160935294    9.64831761786301
N        -6.51170360984322    1.79340573131193    8.98857147344705
C        -6.22075111484594    1.96691718795027   11.46547512955945
C        -6.33174457365336   -0.41592263223204   11.62587482161932
C        -5.17512540323569    2.04883217363341   12.55355014779832
C        -4.37398527569037    2.12896641172936   14.58664565749383
C        -3.34905879494072    2.08952800271468   13.69349084323785
C        -6.84552095530053    2.13782962987702   14.43345974044058
C        -5.68418713633243    1.92124396186162   10.05298287658971
C        -5.73040030800921    1.78584541119279    7.87055529637268
C        -4.44333657404920    1.90644465586057    8.29278291200792
C        -7.94721803941363    1.70694731709042    8.96808326158095
C        -7.08854324074511    3.22311814991678   11.56620198443057
C        -8.45368243497335    3.15596960373273   11.80807131958245
C        -9.20079755448272    4.31917032173112   11.88564256426221
C        -8.59045691143502    5.55093936722848   11.72164984800975
C        -7.22790670669410    5.61672146408270   11.48065383162697
C        -6.47369382915146    4.45883776842838   11.40187658885913
H        -8.92946058476335    2.19657876770035   11.93821646047624
H       -10.26237176234146    4.25872114430007   12.07451731728472
H        -9.17588866420122    6.45606513709136   11.78211969557196
H        -6.74116113864686    6.57064535353829   11.35206106136760
H        -5.41104828226492    4.52289486505747   11.21418130342508
H        -2.29016008635753    2.08779160124681   13.85513830236775
H        -4.37922778384395    2.17491590939663   15.65579661762142
H        -7.25555738258511    3.14857832088103   14.38000503789708
H        -7.50670480293634    1.46041719238383   13.89643799426628
H        -6.78261769073145    1.83318672447978   15.47664235824375
H        -3.53073402767219    1.93297385367754    7.73264976638189
H        -6.14762787908062    1.69527740933620    6.88926468008060
H        -8.29614570942952    1.08103230588787    9.78659532065538
H        -8.39030477429153    2.69996323269893    9.06932287525239
H        -8.25850338865371    1.27224399528303    8.01965404290092
H        -7.07618747200882   -1.18980267745453   11.80358283836725
H        -5.87442457573694   -0.56333777027511   10.64324103184513
H        -5.54826884556589   -0.47819551378177   12.38653017724557

