57
CSD_code = SISQIU | q = 0 | S = 0 | Stoichiometry = C22H32S2Zr | MND = 12
Zr        0.00011881027142    5.60156347533954    2.44428188094600
S        -0.99333703122024    4.11346281117109    0.69103818873068
C         1.57143342817648    3.73749912187002    2.22809161436241
C         0.77692535452163    3.47238706279679    3.37982804199583
C         1.12181224746807    4.42137069223169    4.38366803038834
C         2.07769825116684    5.31673065807481    3.82094487688244
C         2.36856432869934    4.88295655695915    2.49584757735570
C         1.51390554014419    2.96716656119485    0.93906751426246
C         0.61328272756754    3.69072159572865   -0.07154640423606
C        -0.14505859268598    2.29406624401030    3.55081016945856
C         0.83824611335356    4.21919856795199    5.84783309432438
C         2.83783907735177    6.41382605981452    4.51498759622273
C         3.49381153186647    5.41290063075496    1.65236426343600
H         1.10780704530813    1.96888980224415    1.12536244281679
H         2.51468324400114    2.85376106945620    0.51021568325586
H         0.40836754311245    3.06115718160061   -0.94118299215721
H         1.07725195011921    4.62871996207735   -0.40299601642184
H         0.42611990499688    1.36286110517516    3.58039569270447
H        -0.85361329471959    2.22812302968639    2.71939134668393
H        -0.70523893825426    2.37006408205718    4.48133962707608
H         1.36710733462419    3.32528090238399    6.18904399599873
H        -0.22083613245581    4.06612524362575    6.05232690644795
H         1.19326498490736    5.05460593623763    6.44505857882280
H         3.85972425810603    6.08910786198858    4.72611006152142
H         2.37694982723951    6.68963036024155    5.46218823666331
H         2.89842446840210    7.30246563267600    3.88161408072695
H         4.45190483830139    5.08537453819402    2.06425539348494
H         3.49227488177100    6.50339051527242    1.62613418874569
H         3.41868136323319    5.05505435502774    0.62783897510376
S         0.99408361371064    7.08885524625471    0.69102725545425
C        -0.61257727243452    7.51134548695187   -0.07178708264722
C        -1.51263700180103    8.23602493181439    0.93856486215156
C        -1.57112668937826    7.46579079483392    2.22762103761138
C        -0.77660900586094    7.73078708928037    3.37946019444658
C        -2.36869814837548    6.32065608390106    2.49548722535978
C        -1.12153378477467    6.78183743979811    4.38324708446869
C         0.14567000709940    8.90888791476953    3.55038859814497
H        -0.42521964765994    9.84030928651574    3.57821465026847
H         0.85543616961746    8.97365824284862    2.71988816050303
H         0.70444688401053    8.83362195118437    4.48181671216520
C        -2.07756849346383    5.88669844455695    3.82049771910478
C        -3.49492881431221    5.79029640186226    1.65331339711609
H        -4.45299638946186    6.09862395283836    2.08003421313338
H        -3.48021483990985    4.70026499652010    1.60845311704613
H        -3.43385520638938    6.16677524371929    0.63444972457328
C        -2.83806090007825    4.78946101979947    4.51388152432006
H        -3.85965180705953    5.11456205251699    4.72588606591278
H        -2.37699688750731    4.51228635371741    5.46059319662356
H        -2.89961427963933    3.90166630894190    3.87943819800969
C        -0.83884647472984    6.98373545629840    5.84737216006454
H        -1.37037171542708    7.87564555818051    6.18867429221718
H         0.21926382315559    7.13963993366613    6.05346964497223
H        -1.19187280074780    6.14760646216081    6.44420365854729
H        -1.10558792330043    9.23392347323547    1.12494010738508
H        -2.51316468896218    8.35049783040093    0.50936448746750
H        -0.40758134645605    8.14022810787990   -0.94192037727569
H        -1.07730144523425    6.57335231973806   -0.40239247274471

