73
CSD_code = SISVEV | q = 0 | S = 0 | Stoichiometry = C36H30As2Br2NiO2 | MND = 4
Br        9.46194561122849   10.26072443110109    7.47614328327219
Br        8.16253962995111   11.28829126252405    4.69083778186857
Ni        9.29584363118114    9.50316915020875    5.41157134297619
As       11.16889336601741    7.49218988654920    4.42531497808931
As        7.33685316776107    8.71379829324643    3.13350238073735
O        10.47857191233443    7.97927749164360    5.82307353913948
O         8.87287131814542    8.48148188724738    3.68376084183664
C         5.98623496369291    8.71251965929225    4.52824724128086
C         4.64374770541785    8.74577533874966    4.17032108084969
C         7.21670408314375   10.15556386981017    1.83276564542783
C         6.07870171343093   10.93124201789817    1.67561822709778
C         6.95514702091471    7.10823531977018    2.09756941031536
C         6.05754284824629    6.14240993288681    2.52766766394643
C        10.28795853620308    5.96827341828067    3.61027151641805
C         9.15245315010673    5.45839150313346    4.22070827424879
C        11.54520892190356    9.01828848123064    3.27182756613829
C        11.72697199493431    8.90007987788448    1.90306870847028
C        12.90863542884397    6.79058438919522    4.91734465114656
C        13.02870993387291    5.46982309388415    5.32263125003951
C         3.67131453695712    8.72610584676037    5.15521625135487
C         4.03471214038528    8.66356765822190    6.49123667881685
C         5.37147646704323    8.60028820173393    6.84900393085681
C         6.34428495913148    8.61772471869286    5.86493659897674
C         6.06923327341157   11.94229896991204    0.73087034133163
C         7.18937209382030   12.18273917689102   -0.04779406256771
C         8.33110140922044   11.41867296929772    0.12312665117940
C         8.34367602460794   10.40407664118998    1.06333036589187
C         5.86528980144460    4.99236446131487    1.78064018127677
C         6.58230113033738    4.79482328117515    0.61328706182240
C         7.49613764466147    5.74644043515246    0.19122969293788
C         7.67823332455695    6.90104492714882    0.93069332274702
C         8.53566181892138    4.33047722183668    3.70913065856500
C         9.05475463488798    3.71637232174445    2.58169758241976
C        10.19830733449976    4.21555776512853    1.98013396093930
C        10.82436457045470    5.33546992962724    2.49951959401089
C        11.92204928426646   10.03830571836255    1.13558682052472
C        11.92227278778816   11.29041252594229    1.72926446917141
C        11.75009199204024   11.41123031546983    3.09846310184392
C        11.57021256586252   10.27437451650155    3.87012818432771
C        14.24996181186025    4.98939447380484    5.76109885599908
C        15.34947698201192    5.83140864143139    5.80050512970277
C        15.22913516890732    7.15427923127165    5.40793342095165
C        14.00760966753412    7.63514293296928    4.96949930064502
H         4.36728474766510    8.77785003030117    3.12144934437164
H         2.62788251451895    8.76367223104198    4.87810026958506
H         3.27233957986479    8.66167152559104    7.25542957775073
H         5.66226476540258    8.54951948831251    7.88714042503724
H         7.40702274012513    8.56935455468763    6.15998234839928
H         5.21685829694908   10.76729369475966    2.30877351388219
H         5.18684771078468   12.55259003789693    0.61014615335686
H         7.17739812677778   12.97812909131497   -0.77773358980734
H         9.21384255756015   11.61728546797723   -0.46722887641994
H         9.24392889574401    9.81937592762314    1.23089247517444
H         5.50679875976872    6.29176139814271    3.45087441996261
H         5.15788101525998    4.24677311115143    2.11403940614686
H         6.43215488103865    3.89693125092076    0.03236293346387
H         8.06184272164914    5.58944478763276   -0.71582713788897
H         8.38742612513364    7.65723965030089    0.60487097677677
H         8.76378369521801    5.95394315406266    5.10721976502122
H         7.65597252874141    3.92810615453495    4.19027582864844
H         8.57359735427189    2.83865702244247    2.17660663634522
H        10.60924316405997    3.72535834148231    1.10935781979636
H        11.74096007822151    5.70791679069283    2.05507962479445
H        11.69672809636698    7.92370485505920    1.43438554224398
H        12.05838663335530    9.94422711830049    0.06717407216437
H        12.05279459645672   12.17455404882101    1.12361284814037
H        11.74030686116455   12.38385691914669    3.56683265191989
H        11.45809993792584   10.37590254709598    4.95978796141451
H        12.15666589368674    4.82185832368684    5.29306588382248
H        14.34368352716826    3.96047278670492    6.07680122982293
H        16.30167623837530    5.45669369576926    6.14549432713504
H        16.08518833630288    7.81181065150873    5.44830509835659
H        13.90037325821063    8.67335315689468    4.66614499363779

