25
CSD_code = SISWIA | q = 0 | S = 0 | Stoichiometry = C6H13Cl3N2Pt | MND = 4
Pt       -1.85064599771228   10.54311300898094    9.54250349004926
Cl       -1.07228584909233   11.82135494153830   11.26372115268375
Cl       -0.41840764673230   11.47090587589479    8.12203577112526
Cl       -2.72371833412189    9.11413761633711    7.91965937547522
N        -3.30927559259008    9.55942614826552   10.97187133879041
N        -4.88243435682005    8.18575545934828   12.33485812664558
H        -5.52805613861707    7.62547095993976   12.89609138445762
C        -3.34998046544048   10.09804314179865   12.32042707983031
H        -2.35308961520730   10.01689556543665   12.75560393630079
H        -3.56819326119709   11.16548166658021   12.26633531857265
C        -2.83866751871115    8.18249911941051   10.99526529986914
H        -1.79889428967317    8.17438768905294   11.32958911014756
H        -2.86938532897048    7.81627206863572    9.96268152199737
C        -4.63384516545345    9.62168239953724   10.37128422358869
H        -4.52197394072777    9.33528670719014    9.31573985469125
H        -4.98280408735521   10.65436404872923   10.41565045611227
C        -4.41449690016762    9.34092320102824   13.14178824376022
H        -4.00368292770491    8.97157846354907   14.08296665905092
H        -5.27503845409555    9.97410647407792   13.36574373773295
C        -3.72573712035272    7.34494088104623   11.94004902324904
H        -4.09474247248037    6.44551943146552   11.44431230410657
H        -3.19005493836291    7.04920342968581   12.84436904362559
C        -5.58608645990202    8.66884522173001   11.11960875276032
H        -6.50850323471262    9.16973995251301   11.41863086943594
H        -5.84249990379885    7.80416652822807   10.50511392594246

