45
CSD_code = SISZAX | q = 0 | S = 0 | Stoichiometry = C17H18MoN2O7 | MND = 6
Mo        7.33361012418424    7.46944333466396    1.25560734273499
N         5.17828270779143    7.33733680856990    1.00027177263443
N         4.60242956842025    6.36935301621673    1.74967675095829
O         7.09492753182579    8.56790363728650   -0.19014135686427
O         8.00413700244019   10.62139461074169   -1.52458714056841
O         6.76833839125774    5.85088174974435    2.09708853068030
O         2.84059792235012    4.84922926822128    2.85161352863378
O         7.25787692922226    8.50239386400204    2.53664099419970
O         8.80433115454306    6.84122467274429    0.85528024559082
O         7.04083400620638    5.78143137367507   -0.87518849224175
C         4.84038463830027    9.31383152378973   -0.31564165051903
C         6.21453572551416    9.46162962871490   -0.59309775445184
C         6.66523051323000   10.58908635103437   -1.33081360791600
C         5.74812409220027   11.52465654205614   -1.77393289924756
H         6.07287164885838   12.38859368180320   -2.33167401439249
C         4.38764387153846   11.36020268364505   -1.50780729916232
H         3.69204266455355   12.10186329935717   -1.86861742528714
C         3.93532739409495   10.27925306664482   -0.79570904469212
H         2.88411881752859   10.15961890929319   -0.58382333548157
C         4.38419148225639    8.20576399952460    0.46196485569845
H         3.31503211827049    8.09811005383896    0.64364558294261
C         5.50610704990124    5.63404863923366    2.33012352098177
C         5.14486354352774    4.55833837425462    3.25371568151939
C         3.80766385505334    4.18478543270182    3.50947586657617
C         3.56956082624348    3.15258947316722    4.41686515921774
H         2.56009181183500    2.84228689762546    4.63522493891638
C         4.61607099529468    2.51085152976748    5.05379033887647
H         4.39934496897909    1.71630902888103    5.75245525117645
C         5.92871792605150    2.87851277561461    4.80465110390724
H         6.74084212896231    2.37641624756538    5.30622771957552
C         6.18384814667566    3.89615267262375    3.90968059681957
H         7.19573623209004    4.21306676203697    3.69608238689807
C         8.59234107963562   11.77987425936783   -2.08539602658238
H         8.28856172411593   12.66788369695127   -1.51476531855520
H         8.26548299179212   11.90191283957723   -3.12817047243435
C        10.10002651194826   11.59749075279635   -2.01801735160159
H        10.40272192597852   11.44491830637369   -0.98594377548946
H        10.60007416492221   12.47583881986692   -2.41608241989710
H        10.39386206814782   10.72442816925066   -2.59360923281265
C         1.49265465338384    4.50990046449998    3.08354980776501
H         1.28160097426089    3.47328235674726    2.80198133778842
H         0.91326567786466    5.17839495631978    2.44923083823347
H         1.20937812038124    4.66928877214444    4.12875198874383
H         7.28562100541555    6.35752691431901   -1.60830150801939
H         7.88019331295078    5.51299978274542   -0.46987601484249

