42
CSD_code = SITBAB | q = 0 | S = 0 | Stoichiometry = C19H12F7NOPtS | MND = 4
Pt        4.28212164503963    6.45198679701512    8.25620731538433
S         4.66525060887620    5.56839560443030   10.43050718193019
O         4.74337448505249    4.12464180847350   10.64563948935912
N         4.63366810499483    4.75107133566026    7.16026140813360
C         4.86298799567151    3.54764656362666    7.67221674850064
H         4.84874254467391    3.45460089912021    8.75052551845903
C         5.10818688478984    2.43235855017330    6.88803706762949
H         5.28805563224107    1.47731968413300    7.35370899852670
C         5.11540383085728    2.58163325055716    5.51188643641588
H         5.30707905945745    1.74019861451254    4.86376750648349
C         4.86663881459451    3.83163425745312    4.97332378443415
H         4.86393401897098    3.95613104792429    3.90544505043545
C         4.62047379496514    4.91358573379875    5.81723672096194
C         4.31787965017625    6.27787832699761    5.37908535811763
C         4.22102777621904    6.70170668384281    4.05297730380185
C         3.90417420297621    8.00155043570856    3.71105412706280
H         3.83576634077722    8.29771917696556    2.67745765532356
C         3.67779446268764    8.89704126808452    4.73793703768375
C         3.76647193881951    8.52837795326337    6.06989406357233
H         3.57793808599421    9.28088405509210    6.81941802059894
C         4.08827135726307    7.22047529729422    6.41363423515674
C         3.85611034721431    8.19665338402807    9.17605461321898
C         4.75008173155274    9.23087136119926    9.42813417274111
C         4.38632067963179   10.41449367179177   10.05996907892860
C         3.06518721933141   10.59429907685004   10.45812233323669
C         2.13305478189584    9.58620396894459   10.22584824876312
C         2.54837519386794    8.42250648960423    9.59376336649486
C         6.28650180870803    6.23157358405855   10.94179475444199
H         6.23512005900386    7.31288193130429   10.97575504080154
H         6.54544234517414    5.82039582928065   11.91095306934227
H         7.01971543310250    5.92229843598274   10.20262343990108
C         3.69640642041884    6.21723454528227   11.83658604115321
H         3.85836623318381    7.28477707373281   11.92524410615377
H         2.64838066117814    6.00942424038759   11.64738881064186
H         4.01964837508388    5.69234568820530   12.72823339759560
F         4.43442558528877    5.84978428573647    3.02803231832385
F         3.36220354950799   10.16565046640050    4.42978383999371
F         6.03976067824670    9.05788305163472    9.06256923171354
F         5.29118697235834   11.37275774640944   10.30056083883128
F         2.69609940543739   11.72337382635753   11.07412106737247
F         0.86442488232498    9.74547360053043   10.62426670132028
F         1.65824640241994    7.42288039798022    9.39037450102565

