55
CSD_code = SITDOQ | q = 0 | S = 0 | Stoichiometry = C27H23IrN2O2 | MND = 6
Ir        5.86602224622740    2.69599249686789    3.21070424036601
O         7.71149538886440    1.71200134239699    3.95285936367437
O         6.41006989542896    1.71703695719636    1.29391982063809
N         6.79078735368729    4.29142593399468    2.45854538995942
N         4.93293583350397    1.10813986849450    3.96887998716697
C         8.09660246624012    4.51758457667070    2.57493676458707
H         8.64192320326690    3.84753438210646    3.22539077154084
C         8.74372507136970    5.54618690678048    1.91829896784934
H         9.80565670686491    5.68576526869042    2.04279356048316
C         7.99787847718175    6.38505346564320    1.10035785493208
H         8.47028570014929    7.19562268146006    0.56592669128759
C         6.63954434936924    6.16452409249929    0.98654141069991
H         6.03681657092545    6.80233263832908    0.36059477147200
C         6.04447683930074    5.10929640685172    1.67751255420837
C         4.62919619920630    4.77515545189694    1.65742562768492
C         3.66150759210501    5.49863941220119    0.96073767260842
H         3.93680697501340    6.36531343183794    0.37744627967993
C         2.33960765101774    5.10800576242437    1.01251539789514
H         1.58794091376063    5.66633725403844    0.47361122024283
C         1.97912755578770    3.99625387069425    1.75953339551408
H         0.94244335482451    3.69227117801004    1.80104786789805
C         2.93750337271371    3.27431232748145    2.45090146771475
H         2.62609921152514    2.41364786737370    3.02725645599447
C         4.27916358227856    3.63893761686866    2.41916405400141
C         5.40472875503229    3.43417074149312    5.02035735756212
C         5.64121546504836    4.70396434226008    5.53556586447821
H         6.05535760848850    5.47523557425192    4.90026901459988
C         5.35234621934476    5.01019884780479    6.85485400377316
H         5.54527538269345    6.00517449415091    7.23113446535302
C         4.81757684056139    4.04823289431356    7.69903570759466
H         4.59684767972979    4.29191739031028    8.72816485199199
C         4.56802269000926    2.77914351719768    7.21963809782615
H         4.15137228900663    2.03381567811352    7.88147788035151
C         4.85538809898301    2.46773304414185    5.89085831439719
C         4.61904153059322    1.16658665227919    5.28557097313308
C         4.11061755231988    0.04596730232124    5.94194684184645
H         3.87427732662832    0.10180780691739    6.99211840076991
C         3.91842215237091   -1.13220674467536    5.24798461488799
H         3.53097514899060   -2.00774594948347    5.74710835441535
C         4.22958317139978   -1.16786024610546    3.89490045454775
H         4.08812419703563   -2.06372495855271    3.31174129195822
C         4.73127165039350   -0.02543384075065    3.30238976862845
H         4.97927344361364   -0.01206621983879    2.24991752476492
C         8.47963269379120    0.95163675340314    3.31749002923672
C         8.39529952233832    0.59364586618703    1.96850629041508
H         9.16909866640512   -0.05736307193743    1.58840548347451
C         7.40769744280350    0.99360225338715    1.06296288788793
C         9.64497803464323    0.35840385892863    4.09321946396684
H         9.63828936911895    0.74049969255007    5.11143692527925
H        10.58782605693870    0.61531072957452    3.61399402450580
H         9.55867420745106   -0.72656936810233    4.11704184590862
C         7.55786313082422    0.47370931865904   -0.35795532621682
H         6.73923248242194    0.84299477103579   -0.97110753796938
H         7.54958103557417   -0.61462591706997   -0.36096957467815
H         8.50339364484209    0.80877359642317   -0.77935988278836

