79
CSD_code = SITDOR | q = 0 | S = 0 | Stoichiometry = C45H29CuN2O2 | MND = 4
Cu       -1.22205035860522    3.45736991098422    9.33035309397785
C         0.23295745084841    3.59689711180267   12.00071972381947
C         0.86053106756919    2.91241756727132   13.07464280590940
H         1.18296623267152    3.49172329602540   13.92697513368858
C         1.05872533865208    1.56191223435876   13.06953435116486
H         1.54514174722720    1.06711401660294   13.89613411605833
C         0.62276673381765    0.80735636043534   11.96961214775926
O         1.41240007128312   -1.24358483933104   12.92709900472101
C         0.77700328542261   -0.61714777537276   11.87085514310648
O         0.48765063855025   -2.65945854767322   10.60774500998321
C         0.33506265002122   -1.29491149047912   10.76270267447284
C        -0.35514165578028   -0.60465620184092    9.70855171846472
C        -0.87423605627600   -1.24249896706899    8.57144785382622
H        -0.77542351441161   -2.31219158360318    8.46895462265912
C        -1.50938536081674   -0.49887175904430    7.61917736882875
H        -1.92384993099629   -0.99093898640281    6.75188607235374
C        -1.66003477942838    0.90898434773098    7.72358712783685
C        -2.36081885687940    1.61240707957864    6.68202563405349
C        -2.58971103232375    2.95994591754261    6.74729323892427
C        -3.29862764819429    3.71057746295345    5.74187986531164
H        -3.71893906625153    3.28494710961948    4.85171030256851
C        -3.32067508151039    4.99608697218418    6.14240483310077
H        -3.77588118821151    5.83713879699383    5.65735323420591
C        -2.60308453286395    5.06270252825644    7.39088842109389
C        -2.39980947856194    6.24334843630437    8.10067166494674
C        -1.71097663819649    6.28577359293449    9.31027544132441
C        -1.42662928230521    7.50689469757671   10.02122294139046
H        -1.71449178849362    8.48489190131856    9.68856957953243
C        -0.73154018845328    7.16949185521700   11.12424002950561
H        -0.33485658614629    7.81592034807116   11.88248852216423
C        -0.58061102668429    5.73627733304680   11.11469745925057
C         0.08011422180132    5.02582577251177   12.08039865462266
C        -0.24275058902089    2.87443247700412   10.91030203843091
C        -0.02401177547716    1.48638864184566   10.92922329488058
C        -0.52000497784775    0.78254503726272    9.80989024861980
C        -1.16426206541409    1.57228689493107    8.84225637329788
N        -2.17891682500689    3.82721345573241    7.74515022155047
N        -1.18193928427799    5.23179715555748    9.97435536209280
C        -2.85964701469252    0.87344623958550    5.50478210854956
C        -1.96737176555468    0.34841496911243    4.57384754536257
H        -0.90603237695518    0.48804370732739    4.72177274725375
C        -2.43423814061450   -0.33416760158934    3.46552933638653
H        -1.73337434455898   -0.73244032443537    2.74645479108842
C        -3.79547186778874   -0.50757891526025    3.27664652900653
H        -4.15855986992274   -1.04355613264879    2.41225622899014
C        -4.68906922325331    0.00839009937687    4.20017102721273
H        -5.75158252041042   -0.12586060514605    4.05835027239546
C        -4.22561339783002    0.69747222845150    5.30643276809063
H        -4.92038733251669    1.09768070664907    6.03083779666448
C        -2.92782539957642    7.50778621503763    7.54389943440593
C        -2.45017904295660    8.00337405431399    6.33454586408984
H        -1.68018054053380    7.45879730718147    5.80639797762547
C        -2.94529969441907    9.18654221247665    5.81708364078296
H        -2.56431264023779    9.56284713806889    4.87868268332078
C        -3.92436959081005    9.88912450930162    6.49943433469386
H        -4.31105659609812   10.81249288447335    6.09410726146027
C        -4.40493245997985    9.40357051153388    7.70405083986193
H        -5.16962034177775    9.94718286675799    8.23986896781483
C        -3.90967619367507    8.22169665593706    8.22417967294041
H        -4.28853737600447    7.83861824591736    9.16121520302769
C         0.65202841287363    5.76365931109215   13.22314498600187
C        -0.17807941263971    6.41029461573881   14.13418895745527
H        -1.24939066728205    6.35355896886259   14.00466284485541
C         0.36081619559450    7.10744091942531   15.20030190365264
H        -0.29322052284838    7.60208793244262   15.90357237360283
C         1.73407405577234    7.17304224831687   15.36621646872235
H         2.15390280466869    7.71984628837971   16.19746642000167
C         2.56736122151751    6.53473188335311   14.46240115527141
H         3.63932415729304    6.58495938801155   14.58653739825672
C         2.03175990708888    5.83060229434900   13.39977103575376
H         2.67992602131234    5.33499311144705   12.69121049530697
C         0.62642698862055   -2.19736772823689   13.61813853044438
H         1.28187159483468   -2.63869277346120   14.36740357956837
H        -0.22023541719478   -1.71018343645567   14.11416036584391
H         0.24685715166473   -2.97821119699985   12.95471351650173
C         1.82732031556712   -3.11740386277554   10.57937709774550
H         1.77112695279555   -4.20368965334505   10.52861325870434
H         2.34376704017866   -2.73619484618118    9.69171403096437
H         2.38544106092489   -2.81825859723209   11.46938322083569

