81
CSD_code = SITGEI | q = 0 | S = 0 | Stoichiometry = C33H39Cl2N4OPRu | MND = 9
Ru        4.26610224194752    1.82903040017985   10.86233180950767
P         3.99770447117163    3.18825040196109   12.70333816965521
Cl        3.23218858107439    0.00880167657347   11.94095908072318
Cl        2.13242844028778    2.58942569452544   10.22688187051738
N         1.38020346878946    0.63333179421201   15.38816848903425
N         0.68782510489037    0.83014870508378   16.50938296313828
N         1.44457964188265    4.17458954519298   16.19605794624106
N         2.12728716263088    5.29929943900310   15.98473648048715
O        -0.14425149628768    3.12168089410885   12.31525171835701
H         0.32557080150495    3.15712001849052   11.46689414606565
C         5.00070648588375    2.59892591706196    8.79423188448866
C         4.75065052850055    1.19845795502222    8.71540278786535
H         4.09990996042878    0.82154917501737    7.93284926729372
C         5.40277302378018    0.30731939336709    9.57026295893541
H         5.24959344860711   -0.75840084262537    9.44164622925006
C         6.30414702957812    0.76716565170199   10.56814381042911
C         6.50422735871207    2.15822585477194   10.67423486454215
H         7.23289027226545    2.53756372711046   11.38471834004018
C         5.89288578593327    3.06141660479245    9.76835712977272
H         6.15547883359333    4.11269139696235    9.80268608581005
C         4.35354278197618    3.53209881934447    7.82035696806237
H         4.74164153475804    4.54221573866851    7.93224865047526
H         3.27531068222212    3.55671463705095    7.99338986189615
H         4.52048574360046    3.19082002653790    6.79907891485389
C         7.17570582654493   -0.18111534800451   11.35845079531970
H         7.48287616375075    0.32973795046693   12.27895608812880
C         6.47811877932102   -1.48807716524073   11.73564971608998
H         5.48699370162962   -1.29828743075332   12.14345798257787
H         7.06493876872075   -2.01414787527360   12.48454398108309
H         6.37684546988718   -2.14192901628743   10.87221892264277
C         8.43549999546016   -0.46406098794320   10.52844198201219
H         8.17213771509131   -0.94398330184256    9.58755520782771
H         9.09907316150638   -1.12654004138683   11.07848907814078
H         8.97080749937323    0.45764538169634   10.30724742348870
C         5.03104908284935    2.80299050022438   14.14981319311820
C         5.62350879175750    1.54934588657548   14.23854040078873
H         5.44517159276338    0.83064543679345   13.44906620879920
C         6.39353531394755    1.21825279447807   15.33908366739853
H         6.84731355596006    0.24055381937174   15.40590391658131
C         6.57008780450215    2.13860073547687   16.35902492440757
H         7.16660994114714    1.88153347021390   17.22164615827678
C         5.97432612881553    3.38794106005965   16.27799167015262
H         6.10306606188835    4.10203748286291   17.07765673301648
C         5.20730383941890    3.72490280689531   15.17816228358074
H         4.74409944734933    4.69931011903950   15.12111975000171
C         4.64463260405337    4.79131240021988   12.12516727275260
C         5.90330305617304    5.26230802435394   12.48404049279718
H         6.50857340341692    4.70747598313451   13.18698828857559
C         6.38449298509634    6.44261091539981   11.94376179302386
H         7.36057401403692    6.80453754474735   12.23292287085342
C         5.62234877185767    7.15510167213971   11.03317611716354
H         6.00191596061348    8.07498064951013   10.61352947264949
C         4.37693850159827    6.67854409416675   10.65414523132057
H         3.78520723771423    7.22453205235167    9.93429752597230
C         3.89131286722832    5.50088385315640   11.19095130186932
H         2.93520407404750    5.11186110658095   10.86880040945367
C         2.41672560211285    3.76618020904763   13.44380715380404
H         2.71490605571541    4.54740707461869   14.15788185541432
H         1.85578158192168    4.25643767657218   12.64139828084940
C         1.46887512301518    2.77824465483991   14.13910784803597
C         2.23837055782803    1.64665438766142   14.84390259509479
H         2.88827534248886    1.16093471264292   14.10911206421935
H         2.84392976870281    2.06364855898656   15.65472363025138
C         1.14151693335015   -0.58403102339854   14.86378121346103
H         1.62090211919580   -0.90295577105517   13.96085289853828
C         0.24479807286562   -1.21069041104804   15.69808208316749
H        -0.16956587744081   -2.19258977159055   15.59896562717851
C        -0.00342789705985   -0.27665284241971   16.71035846714476
H        -0.64588191301908   -0.36487540903612   17.56451577522201
C         0.63797970087742    3.58240839221577   15.16751786849641
H         0.09935908941845    4.36811382417770   14.63263420160867
H        -0.07521009697330    2.91114141912263   15.64912474241441
C         1.66512888924387    3.68441636753874   17.43022070019808
H         1.20398359439503    2.77203729332042   17.75108058918253
C         2.53618254741576    4.54844468175741   18.05538015167669
H         2.92683361879793    4.48126405900001   19.04994240778946
C         2.78931389527429    5.54077061118685   17.10267346383691
H         3.41373094778888    6.40931594564470   17.18395545210799
C         0.49108877393716    2.15655158517777   13.11015503316427
H         1.04744629047797    1.44324663880790   12.49418771406851
H        -0.29179672596228    1.61332993915987   13.64892689593296

