69
CSD_code = SITHUZ | q = 0 | S = 0 | Stoichiometry = C33H27N5NiO3 | MND = 6
Ni        9.74747588571669    6.36166180791464   15.51253489120984
O         9.74550774192229    4.59018162289467   16.27659674025555
O         8.60879846605508    4.71785636817344   20.29872013597302
H         8.57315547935381    5.40567100644665   19.58499586884915
O         9.79489211174017    8.12144605430620   14.91255197658349
N         8.83724053040424    5.79782329120079   17.96984671213292
N         8.92475554064326    6.82883113235830   17.08498143257645
N        10.60199676541930    5.77880154837425   13.91896866070063
N         7.45158854535258    6.05799281193069   14.67091487342741
N        11.92031735487789    6.56002890970630   16.73474135439006
C         9.31652950427117    4.67488176352071   17.47351364763823
C         9.82125045119652    2.30385367151465   17.83035517292063
H        10.07652287181376    2.26832039330130   16.78064257567439
C         9.37724758973944    3.49636602420450   18.35447314304808
C         9.04125484725718    3.57739255262172   19.73677739654217
C         9.17130880785527    2.45536258139889   20.52424259241007
H         8.91783491254319    2.52840874379293   21.57099380706191
C         9.61934997856428    1.23215669215671   19.99906024647134
C         9.95164576511148    1.15036157644905   18.61929920741386
C        10.40283700041626   -0.07824449139243   18.09226098216281
H        10.65275194181931   -0.12961892714616   17.04176571070558
C        10.52042784789112   -1.17937852365421   18.89229699261917
H        10.86574119614223   -2.11821522338655   18.48423025015100
C        10.19201153362483   -1.10013801964826   20.25595450041143
H        10.29031465549711   -1.98073512127374   20.87438287783407
C         9.75287966778690    0.07532418655988   20.79667901074345
H         9.49947310961324    0.13789328822497   21.84531252588018
C         8.44302792073790    7.97473138193357   17.44628939743819
H         7.97169291447034    8.03626806618504   18.42600839058635
C         8.51310746090780    9.15613293955456   16.65945384552700
C         9.21764243656114    9.15445387872541   15.41544052059044
C         9.27520798131966   10.38149330194206   14.70859358277642
H         9.81273204453209   10.38761169488863   13.77166370308139
C         8.67150861073170   11.51522604553246   15.18437977369927
H         8.73115151127227   12.43205172619839   14.61483013296880
C         7.97786985866398   11.50136114710313   16.39712014214763
H         7.50537193553254   12.40109548377765   16.76086526690257
C         7.90967434327978   10.33714922910917   17.11835591470522
H         7.38159502663976   10.31065758434883   18.06177177523517
C        11.78837381063306    6.27330134967703   13.57577646945373
H        12.19751794444251    7.03086650917292   14.23079859537352
C        12.47249953582160    5.85130110897137   12.44756234693259
H        13.43391246386580    6.27856000086095   12.20860842190214
C        11.90343972781077    4.87959074215400   11.64045495715098
H        12.41053079782594    4.52838630089649   10.75384000386522
C        10.66548334140779    4.37115943708662   11.99944941726983
H        10.18062561735793    3.61558170309469   11.40105632018548
C        10.04989857388283    4.84829904497356   13.14493685564239
H         9.08170097703540    4.47736743470985   13.45451979930350
C         6.95010721446156    7.22088949519509   14.25936765253047
H         7.55414551639206    7.77029019948826   13.54947543597475
C         5.73801934931365    7.72612842825788   14.69936639695104
H         5.39078653914419    8.68593254422169   14.34983081057422
C         4.99441683203111    6.97905265538341   15.59875541216723
H         4.05160603099200    7.34669157193032   15.97704692179936
C         5.48160870532440    5.74249334392291   15.99114406409008
H         4.92793705924419    5.11449113624452   16.67185143236030
C         6.70632059250662    5.32571825252388   15.49698692976587
H         7.11458437017100    4.36307483065917   15.77929351564431
C        12.33520076547759    5.34454424188303   17.08472693318027
H        12.49447227989223    4.64725002454446   16.27187589729840
C        12.53593329632280    4.95626525811562   18.39952744777522
H        12.84108652465622    3.94718578984922   18.63009208447263
C        12.31406477674580    5.88333466144461   19.40506340330084
H        12.43182004015543    5.61020599198754   20.44335706589005
C        11.94324509189487    7.16999995766342   19.04735225199242
H        11.78035976129348    7.93100055148461   19.79472670036477
C        11.76461286096963    7.45911001237752   17.70441438255900
H        11.47339745562906    8.45240922134480   17.38357634277969

