60
CSD_code = SITJIQ | q = 0 | S = 0 | Stoichiometry = C17H36N2O2P2W | MND = 5
C         6.23579894447771    3.66055569786015   10.15155077179200
C         8.96215553993381    7.20927661143783    8.95700325732317
H         9.81495349159543    7.44660254816585    9.59945420614780
H         9.17887024256517    7.57278491672603    7.94902491217055
C         7.70934898392959    7.87967230374061    9.52867544117784
H         7.99221992546149    8.89887297330335    9.86260830891535
H         6.96282053153586    8.02487825344141    8.72382519710609
C         6.17297611152709    8.00365040866990   11.31361714097209
H         5.23219917975220    8.07535683879887   10.73423994895036
H         6.57035706084338    9.03667507921314   11.37067614963691
C         5.86945349408182    7.54129499366765   12.74261103880738
H         4.93844468962188    7.98063322837362   13.11280891032270
H         6.69118573912819    7.85651676360927   13.39257942545980
C         8.12364780241517    4.90276033188631    7.34164873921228
H         7.97574988183776    3.81684918461687    7.41284588206017
C         6.75617094857361    5.55134581986110    7.13532620534113
H         6.86439951180267    6.60324185851299    6.87689410749716
H         6.16446907591944    5.47245539577230    8.05357940443411
H         6.21316699551347    5.05849636008440    6.33069267554757
C         9.06984972264586    5.21116429007827    6.18588484208459
H         8.60922923929997    4.90795942688223    5.24664039468529
H        10.01169847123332    4.67737139092982    6.28668841829350
H         9.28216264906824    6.27691340306721    6.12397268553700
C        10.46258846090321    4.72582403678405    9.13039792286876
H        11.08511752030789    5.18320394812648    8.35070317089468
C        10.40945951156603    3.21018551784120    8.95611932720896
H        11.38825953511604    2.77160881423065    9.14427467318493
H        10.10010717850967    2.93083387778733    7.95173442921976
H         9.70132265525474    2.78323234330486    9.66642591526419
C        11.02142113070519    5.07086285628203   10.50887261131630
H        10.31464471699062    4.75417214142601   11.28127232944251
H        11.19948594358659    6.13905024567552   10.61969729388562
H        11.96516851037902    4.55434387409938   10.67638920733396
C         6.44927379943845    5.26115157869547   14.46410884637402
H         6.37027642253383    4.16691892566591   14.50539966141290
C         5.65256261300021    5.87605405141237   15.61010067315999
H         6.10321634188119    5.59926917092030   16.56226921465910
H         4.62351240074661    5.52438498185405   15.61099201177485
H         5.64794206065995    6.96250745516147   15.54163904795506
C         7.93139461440663    5.62610157760331   14.54478813780489
H         8.06587855665453    6.69213903368251   14.72251418428219
H         8.43375159763842    5.36351489158670   13.60589141495298
H         8.41610611507083    5.08624540322397   15.35608638030905
C         4.03639854727322    5.27594154251288   12.77303572943019
H         3.52571531996763    5.82632682554253   13.57334609668799
C         3.46340509629984    5.68825907682248   11.42019925079960
H         4.08736330798214    5.28196768492988   10.61880248999413
H         3.43224001080737    6.77164024317932   11.32096712698600
H         2.45090863453086    5.30641443181884   11.29880981067730
C         3.89263845419003    3.77242355333001   12.98554741140721
H         2.86433064695899    3.45875881067739   12.81363525486346
H         4.17041851004318    3.48600606722814   13.99753696822496
H         4.53758306185700    3.23969278450613   12.28583936002839
N         7.11887204281563    7.13947965724919   10.62892651737789
N         7.94756689159106    3.66885204114242   11.62541874948209
O         5.69503240644602    2.73096704790209    9.72405695583193
O         8.42060512616398    2.69955599225525   12.12812779003587
P         8.73246100964236    5.38954105557232    9.03124006566015
P         5.84131033867169    5.70576475804098   12.76514358027595
W         7.25803267664437    5.14917562322730   10.90934232545445

