53
CSD_code = SITVUN | q = 1 | S = 0 | Stoichiometry = C25H21N4O2Zn(1+) | MND = 5
Zn       -0.98068537289709   10.92848227613923    8.93539363109991
C        -2.36004136697171   12.67829538781992    8.28967274378269
C        -3.21641919432415   13.80630762250730    7.87062181466498
C        -3.77722213705406   14.65083656579351    8.82538000309526
H        -3.57804373800810   14.46239656891575    9.86929491512102
C        -3.45947316273191   14.02712266336788    6.51721338291272
H        -3.01369692546230   13.36191953036637    5.79343480016326
C        -4.57534724550389   15.70598549732564    8.42595497517041
H        -5.01233532260009   16.36150147733809    9.16403596835122
C        -4.81531159383433   15.92343578354333    7.07776202971138
H        -5.43881880280917   16.74887450826334    6.76863042886366
C        -4.25733306261830   15.08487134135601    6.12486364988533
H        -4.44636187747563   15.25818524033551    5.07620942359251
C        -1.78829378862783    9.75438350932400   11.46670635519377
C        -2.77325933943309    9.37947274342266   10.52384941576051
C        -2.06142190543624    9.65970223555932   12.80777808190956
H        -1.32257818547618    9.96996314121120   13.53285536612306
C        -4.01921590637907    8.87408777635731   10.97971857834239
C        -3.29451307710603    9.16311191897511   13.25755127762065
H        -3.47585818452526    9.09582414399890   14.31869175754133
C        -3.42223072580461    9.22805446848102    8.32642555066638
H        -3.17328215126072    9.40947154369198    7.29013056012717
C        -4.97276267496617    8.52278620616955   10.00195498581461
H        -5.93070900801776    8.13316253805321   10.31259612742570
C        -4.67042989736662    8.69619923160897    8.67693574658042
H        -5.37774289759092    8.44576235358589    7.90297001157613
C        -4.25237395018676    8.76658603704860   12.36608697989410
H        -5.19974298119739    8.37845819020015   12.70663519899292
C         0.99774268581877   10.55309096292204    6.88405223747722
C         2.06329396139040   12.75358281632782    6.77374934164886
C         1.28277047294224   11.80312167553015    7.48128935269455
C         0.99660858121974   13.23088644023609    9.25426417530170
H         0.53126117948074   13.41254199528354   10.21301909730042
C         1.42986547408367   10.29550568572355    5.60845480260058
H         1.18469143637320    9.35640651380265    5.13340791183859
C         2.51955922142893   12.43883888972909    5.47694248869139
H         3.11603056286816   13.16318399027806    4.94438591443950
C         1.79139774080002   14.21685315969613    8.65510667449485
H         1.95951839369259   15.14905114957409    9.16978746771681
C         2.31752094573607   13.98508111445206    7.41130265620930
H         2.91176769879156   14.73136689821058    6.90533806933295
C         2.19205581631693   11.24115395699503    4.90482687252816
H         2.52250068694864   11.00658662538190    3.90519891185383
O        -2.08467646464754   12.50121086270908    9.50638534621921
O        -1.89099417416533   11.88327070388396    7.43180767609259
N         0.22659897849050    9.62269763731132    7.64997019665305
H         0.84076997881113    9.06131738743009    8.23534897179388
H        -0.26418619942030    8.98660299014177    7.02733026793497
N         0.75617926332216   12.06516016551912    8.70006375433613
N        -0.53927854984565   10.25019333486473   10.96209274487329
H         0.16125107087204    9.51227766676938   10.98569237606181
H        -0.20297273248327   10.99462781710329   11.56801209602678
N        -2.50507155315962    9.54734905936744    9.20901683589536

