55
CSD_code = SITWAU | q = 0 | S = 0 | Stoichiometry = C20H24N6NiO4 | MND = 6
Ni       -0.00017334997282   -0.00017314189727   11.09535539174971
O         2.64758553355744   -0.20743784442669   13.05974607007630
N         0.54295791289105    0.72716390525564   12.88520911571823
N        -0.82365342641272    1.71203061452536   10.60334544033998
H        -1.71043786274118    1.43773968516137   10.16382490622434
H        -1.06249480872276    2.18135837118628   11.48119677874970
N         1.89039470052511    1.17360861323647   10.16837385677311
H         2.73615363669131    1.06460747039126   10.71679757384463
H         2.07109293834121    0.82656782020360    9.23098453652511
O        -1.32399427355278    1.99436409059897   13.36425900438286
C        -0.22409106652904    1.55145765291682   13.65840125304281
C         0.52543400375406    1.85088668995818   14.91446650544583
C         0.20783181379312    2.60412672781634   16.02316571965086
H        -0.74479883137364    3.10508862651121   16.10159749597610
C         1.16118265441211    2.69042847886934   17.03378428085849
H         0.94527340369909    3.27062609857205   17.91905197168587
C         2.38284895493230    2.04456522035749   16.92533505040911
H         3.10140411793843    2.13173033354503   17.72724943194089
C         2.69980441704898    1.28572667089582   15.80227053274765
H         3.64968815142884    0.78171426009938   15.71095172978419
C         1.75269416946786    1.20238593410708   14.80542321866775
C         1.73912890284424    0.48574544875381   13.49641141134475
C        -0.04509306957501    2.57430047940777    9.72039990915932
H        -0.41979625786632    3.60605382367094    9.73440902930816
H        -0.12232700552878    2.19138128669029    8.69809141826589
C         1.43280361225869    2.55744548436438   10.14028165568227
H         2.01365355280280    3.19574583094340    9.45675405859432
H         1.51763473891275    2.96706156273196   11.15046673752747
O        -2.64763423696798    0.20735867728129    9.13040917722444
N        -0.54306739864326   -0.72731897361432    9.30535847223645
N         0.82327868439374   -1.71231992126288   11.58738938241286
H         1.71007965391786   -1.43806126296980   12.02690600226367
H         1.06213247822600   -2.18173134222177   10.70958754822947
N        -1.89092641763207   -1.17338972449645   12.02213505514151
H        -2.73664574623427   -1.06437605303086   11.47364682162457
H        -2.07164678821215   -0.82623921516612   12.95947420569933
O         1.32407221250355   -1.99428467086895    8.82649163780053
C         0.22459978414330   -1.55061070296800    8.53177785834920
C        -0.52510650307814   -1.85090961502738    7.27603334666596
C        -0.20746818577604   -2.60459095682207    6.16762194683109
H         0.74534770175785   -3.10516808398372    6.08920497539925
C        -1.16043092020378   -2.69047555675763    5.15660200412662
H        -0.94445888938694   -3.27094391908996    4.27150872468945
C        -2.38207036802235   -2.04450149887746    5.26476295472354
H        -3.10066419118340   -2.13210931214130    4.46293222720587
C        -2.69940057503645   -1.28600006089516    6.38792643823541
H        -3.64926537636197   -0.78190456450914    6.47899360162968
C        -1.75236283543805   -1.20234557107237    7.38481137125260
C        -1.73878515794868   -0.48514784692933    8.69353878187422
C         0.04454414761593   -2.57433007752184   12.47038471127867
H         0.41918135738319   -3.60611596741157   12.45656205955224
H         0.12175675121745   -2.19121184720369   13.49261915749967
C        -1.43332630097333   -2.55722555612536   12.05038102417656
H        -2.01428077443244   -3.19541972231260   12.73390597395191
H        -1.51815936865349   -2.96692684844748   11.04023045545777

