61
CSD_code = SITYEB | q = 0 | S = 0 | Stoichiometry = C26H22HgN8O4 | MND = 6
Hg       -1.89633801036113    2.79294203707205    7.80211953431078
N        -1.58304366184353    1.49255107707624    5.66335989354118
N        -1.98762564778676    4.58636329045219    3.77829781086818
H        -2.25239478185461    5.51657181260479    4.07272523224358
H        -2.43015187134525    4.26740334133599    2.93326357276594
N        -1.81197717823969    4.09425769857485    6.05798669214001
N        -1.89543379386402    5.41970034197604    6.34018246149120
N         0.38093345560415    2.87023080159043    8.88630529067466
N        -0.85131965070862    0.65634823980006   11.50710795590478
H        -1.77958847495833    0.30562761945852   11.70060422432811
H        -0.33993641071189    0.97202598904630   12.31355279877528
N        -1.74565175744511    1.42324508236895    9.48675651777967
N        -2.86227684768439    0.68410656411381    9.71264713188177
O        -1.55650675837237    7.89987067031104    5.75369063948951
H        -1.57685799664318    6.91283309624118    5.65758750744563
O        -2.12674910749471    4.82943273797678    8.55523136375930
O        -4.09283554317506   -1.33607128724223   10.72088851257144
H        -3.36207171753905   -0.69963223769205   10.50927570080047
O        -3.83425945628997    1.80037585697193    7.94668109603969
C        -1.74127949734711    1.71463542465393    3.29393212637954
H        -1.82444640511677    2.34288556050156    2.42141223749585
C        -1.63187864228693    0.34424706406334    3.14910212283319
H        -1.64420181671509   -0.10164990211036    2.16531060046994
C        -1.50655133058772   -0.44558392552791    4.28165015169520
H        -1.42712325145883   -1.51828792247082    4.21183484031768
C        -1.47962773235755    0.18526471404588    5.51690952965229
H        -1.37136899395323   -0.38318290594486    6.43117024087553
C        -1.72874697972230    2.26789770931928    4.57803131438374
C        -1.87155288611295    3.70425181093457    4.82322488856057
C        -2.01559380350269    5.69353623371317    7.64194590731354
C        -2.03416273752096    7.12902807262770    7.99116560845109
C        -2.28241927111172    7.47725315128696    9.31916695896920
H        -2.45186337487885    6.67518416944787   10.02198237645210
C        -2.31653073087469    8.79537645119907    9.71973251292486
H        -2.51481565840225    9.04578517171855   10.75098504316545
C        -2.09771464262354    9.79914834969523    8.78584558830956
H        -2.12427368440735   10.83584819000959    9.08851832429439
C        -1.84661221215951    9.48031756433913    7.46795650875971
H        -1.67318471570788   10.24799965304674    6.72962860020544
C        -1.81118166006908    8.14989559476172    7.04968361590350
C         1.51776609098448    2.25373374627186   10.89021943811290
H         1.54833857640120    1.68519908060616   11.80608775949392
C         2.59474186167413    3.04326668727891   10.53277852189877
H         3.46155871989617    3.10405980999615   11.17447994446322
C         2.54489937174727    3.75341552901850    9.34307586997838
H         3.36039059401230    4.38626042068197    9.03264171175186
C         1.41243760834862    3.62237080370810    8.55262104416123
H         1.32802802871779    4.14399225166550    7.60831244975561
C         0.40449661709690    2.19622214509293   10.04620736583880
C        -0.79166728657983    1.41384741384969   10.36433770288225
C        -3.85650442144967    0.92215836145749    8.85345059594643
C        -5.06192192934197    0.08565035992965    9.02729242169472
C        -6.18062879608823    0.37756081052886    8.24641792488943
H        -6.10517247427016    1.20395382015879    7.55553864628835
C        -7.34163874933650   -0.35678205491303    8.35542348265053
H        -8.19878682945914   -0.11328815377520    7.74590363451950
C        -7.40155843988645   -1.41039915730167    9.25756881586582
H        -8.30744559004919   -1.99128262192835    9.35256527964149
C        -6.30775313279301   -1.72115432056409   10.03768659674262
H        -6.33715277221965   -2.53740661760647   10.74295870060705
C        -5.12751180977270   -0.98401127550225    9.93827905858374

