67
CSD_code = SITZIH | q = 0 | S = 0 | Stoichiometry = C32H29Cl2NNiP2 | MND = 4
Ni        0.20573533777134   13.07945784178679   18.49434191644117
Cl        2.15894218398050   13.83576327416758   18.34584263633741
Cl       -0.40725883707183   14.15258219062528   20.18571967944891
P        -1.85284212745932   12.53396322743912   18.48942782666644
P         0.80920053137613   12.09296361283629   16.71030706226043
N        -1.75014104492078   11.32691263345329   16.00332231640798
C         1.12705708119323   13.20261537533247   15.31213271396718
C        -2.71313537678211   13.94598227478882   17.73945062744763
C        -3.44232500510816   13.11624786780521   20.69237903723173
H        -3.35333335054809   14.14178565648293   20.36573830439994
C         2.24730064811633   10.99319918765194   16.81542932418105
C        -2.82026273751251   12.10658093721435   19.96233513676851
C         2.41326273754003   13.67828153533716   15.07535760575103
H         3.22429568692288   13.36216193453929   15.71486764735243
C         2.65280846070780   10.55925727296456   18.07199007789669
H         2.14719561557786   10.94534966001620   18.95168068417859
C        -3.68537341423094   12.07496693672222   14.77989360787872
H        -3.89840768210327   12.76470197719872   15.58207111507889
C        -2.57121199385756   11.23697734118349   14.87073467033462
C        -4.10138634455082   14.03989335009555   17.70126199752984
H        -4.70785866115872   13.28211200097003   18.18000190391749
C        -2.53838227520889   15.98451382763980   16.47593138394021
H        -1.93035936345875   16.73903158660115   15.99986613007013
C        -1.93688915035661   14.92425093381747   17.12846574127365
H        -0.84899071500939   14.85625154633066   17.18457827516958
C        -2.88034922185979   10.79431775962055   20.42044697531051
H        -2.36216190361957   10.00655871963384   19.89197990764182
C         3.70473794320221    9.67032742609551   18.19288440747512
H         4.02432472355828    9.34044932761656   19.17013964745965
C         2.63814946950495   14.56540128946894   14.03903403014790
H         3.63745063761629   14.93120951697268   13.85526349436260
C         3.94372804522038    9.63446141299155   15.80255028941156
H         4.45134646108835    9.27482665791358   14.91931433592218
C         2.88913248921524   10.51995057516982   15.67608427362527
H         2.57307274194419   10.85742567958580   14.69834917747718
C         0.06768510163238   13.64686939251080   14.52579275343464
H        -0.93800497348814   13.30609250510064   14.72602124647411
C         4.35173986323085    9.21026993878658   17.05749978115011
H         5.17880223875241    8.52187192083274   17.14936064777858
C         1.58573183380776   14.99261572681780   13.24510070419294
H         1.76484818957244   15.68948344420974   12.43956726897430
C        -3.92010769299365   16.07664312034973   16.44238134309791
H        -4.39388213605849   16.90664771566657   15.93956832781353
C         0.30147467277905   14.53587654930112   13.49268262660276
H        -0.52386459885644   14.87639998334015   12.88437322970818
C        -4.50143617042755   12.04908818550745   13.66704717106410
H        -5.35348360862573   12.71124824449498   13.62013681313889
C        -3.58795181467297   10.49142028691148   21.56998700380205
H        -3.63214323951639    9.46995067846286   21.91885548898165
C        -4.69902398431886   15.10958678719188   17.05959068024901
H        -5.77635234303438   15.18750467187845   17.03663884613018
C        -4.14720398030940   12.80739594576118   21.84002347833438
H        -4.62771116303024   13.59500137430313   22.40114275221944
C        -4.22560439586643   11.19411381856380   12.61298665918626
H        -4.86067668378335   11.17840451422007   11.74072143101776
C        -2.30804164388546   10.37213101594105   13.80812536462424
H        -1.47603885777843    9.68522448869399   13.84926201876050
C        -3.12594190919087   10.35867543057166   12.69327560106822
H        -2.90430134656715    9.67722559054415   11.88491152683832
C        -4.22774934122724   11.49503277188193   22.27741321802653
H        -4.77663062131707   11.25624567951181   23.17622655027125
C        -0.38743455803017   10.86394702402088   15.93427034595461
H        -0.08074886369288   10.75404854336681   14.89236121274857
H        -0.25567184868065    9.89383508897696   16.44413646597480
C        -2.37084559927820   11.17607420140975   17.30068045560201
H        -2.08672900497438   10.20403215748986   17.73572438218081
H        -3.45937310987981   11.19461085531418   17.19676064383891

