61
CSD_code = SIVBOQ | q = 0 | S = 0 | Stoichiometry = C26H22N8NiO4 | MND = 6
Ni        5.69157230295770    5.99941002174196    3.46887299158029
N         3.85918111142365    5.77110371934642    2.23385425570199
N         6.07125290286474    3.79730509353797    0.12835261557640
H         7.07237651563796    3.66328598475913    0.17166026714378
H         5.71354681067392    3.96179713384502   -0.79778911034390
N         6.27187323723168    4.83235650068082    2.22089528998629
N         7.50113751802871    4.30943560889968    2.34701142717963
N         4.87601637612618    4.68895214482073    5.06574658415355
N         4.66056904746023    7.82201815556413    6.89894191357147
H         5.01295964310360    8.74171715401199    6.67056928688249
H         4.81990577561030    7.54145159540671    7.85221796872833
N         5.21968056062361    7.22892596283052    4.70207583910149
N         5.33050849529704    8.52987393855557    4.39304404815249
O         9.44640515596873    2.72167435909200    1.74380387227969
H         8.55227664890951    3.14781650627601    1.73144714940701
O         7.63143429708724    5.50155541707235    4.28363222664852
O         5.01334048598799   11.06446873754399    4.77242137315737
H         4.95647286358261   10.08586152050034    4.91492798444084
O         6.02099874479360    7.81569212342316    2.34323235741654
C         5.76706363989156    8.74854781725509    3.14798041730885
C         5.94136066431402   10.15626150518260    2.73998853575427
C         6.50253301257431   10.41498859665156    1.48979925565099
H         6.78183359876346    9.56767185525849    0.88173476777273
C         6.69904550094062   11.70608386345824    1.04942816249144
H         7.13832169803200   11.88989895110078    0.08063252473101
C         6.33015128935293   12.76901420620613    1.86267823827844
H         6.48164267517904   13.78469969479965    1.52750599624260
C         5.76963628310769   12.53747601628963    3.10151894644525
H         5.47696892744626   13.35280694649154    3.74482385720833
C         5.56765329361400   11.23582442778996    3.55890020664209
C         3.41491682576833    5.13821692332681   -0.02939528610581
H         3.72882283618249    4.64835823393009   -0.93780731457884
C         2.17639472225356    5.74647483916685    0.03740089870957
H         1.51680069967906    5.73493033660749   -0.81782756869971
C         1.79464147173651    6.37367126656171    1.21466494983783
H         0.83744263005963    6.86159450663880    1.30230314375145
C         2.67631806736469    6.35447680782311    2.28554617656511
H         2.41575625530318    6.82305998630991    3.22562878664837
C         4.24939631418328    5.17269092419895    1.09137146614882
C         5.58523078675774    4.60007190326961    1.13598201433154
C         8.14710453639755    4.71993392909145    3.44370380330071
C         9.51768008980097    4.20895974011354    3.64107748845947
C        10.25704747750608    4.70468037007095    4.71459754442043
H         9.78606725181992    5.44038154116830    5.34912246743610
C        11.54473015787093    4.27509201199667    4.95285099497239
H        12.10543816235444    4.67131620653730    5.78588874947846
C        12.11657571987569    3.33043916686461    4.11147117107433
H        13.12583687942619    2.98850354072759    4.28861024460599
C        11.40313155565569    2.82299447389127    3.04563639902414
H        11.83323436793820    2.08785639534535    2.38318674085397
C        10.10034199033212    3.25117607305780    2.79323846960598
C         4.57666865593838    4.89121720563597    7.42999572131792
H         4.48856820260430    5.51259302589117    8.30740301591671
C         4.49534175499663    3.51683432966846    7.54321501674011
H         4.34317048484060    3.05768981074873    8.50895695186050
C         4.61528351169953    2.73690650426573    6.40199903929418
H         4.56050243730659    1.66152971419003    6.45239648798816
C         4.80331317610975    3.37649565849537    5.18541407533880
H         4.89252190828386    2.80783168517782    4.26895904660694
C         4.77812139711192    5.45759880181421    6.16813557943031
C         4.91358059625776    6.88434852902630    5.92276447637522

