45
CSD_code = SIVCAC | q = 1 | S = 0 | Stoichiometry = C10H24Br4N4O2Ta(1+) | MND = 6
Ta       -0.76614205239745    6.70810266402907   13.52722412893744
Br        0.86742835141294    8.49809062818957   12.74893824693595
Br        0.95128169121652    5.78154546638538   15.16356105376892
C         0.32321550040283    4.74022606025415   11.26056710395707
C        -1.95910613814161    4.39749361500555   10.48912901514785
H        -2.22437826197387    4.35585558709993   11.54313396920398
H        -2.40863156392194    3.53847495555812    9.99326142964148
H        -2.36425957026794    5.30988476779129   10.04612341168211
C        -0.10939350738874    3.97812505723500    8.96576913926531
H         0.91849954028478    4.27441680129862    8.78292668368655
H        -0.75037132996239    4.52872761970421    8.27513648783014
H        -0.23218195673344    2.91274002951444    8.76597841743575
C         2.08932282503861    3.11010329096909   10.75544137279519
H         1.26595284278320    2.44872045726650   10.50565473493144
H         2.68790781763541    2.63041117662900   11.53163681427886
H         2.72504877413717    3.26124862008213    9.88190729135037
C         2.59065125022015    5.09523907049118   12.06902540471333
H         2.30389864663237    6.13819688462342   12.18292711897943
H         3.53942734879505    5.06197550072303   11.53571128252763
H         2.72587164704638    4.64409731636001   13.05452221061532
N        -0.51905840038781    4.31598828742793   10.31487574886063
N         1.60597498246603    4.37046316034948   11.28430465373422
O        -0.11996966964245    5.53728150791237   12.18734819876516
Br       -2.39957600547510    4.91825397315626   14.30590157064474
Br       -2.48319649824942    7.63522207591869   11.89061462166195
C        -1.85513336221860    8.67665419758349   15.79358137134017
C         0.42709269975004    9.01915059956963   16.56532045311834
H         0.69253118931988    9.06089119386752   15.51135877417335
H         0.87673328687524    9.87799261952692   17.06138322541258
H         0.83196640015170    8.10659702656838   17.00825352141778
C        -1.42284188562955    9.43907751139696   18.08831771872757
H        -2.45081634717982    9.14295666412244   18.27098735585578
H        -0.78208685051778    8.88846616745934   18.77914946496858
H        -1.29995162917120   10.50446766275686   18.28800315822593
C        -3.62092149501064   10.30732274187631   16.29799280126234
H        -2.79741791440536   10.96858844581963   16.54765831965573
H        -4.21933979358287   10.78693354374196   15.52161916328312
H        -4.25674745582157   10.15657202723403   17.17152266307414
C        -4.12257085760804    8.32188650105935   14.98496094249867
H        -3.83595262431243    7.27885981292501   14.87132156069705
H        -5.07135421357499    8.35542801668472   15.51825114717234
H        -4.25771585020510    8.77279574388853   13.99934874154280
N        -1.01296689467823    9.10099147509724   16.73932893551403
N        -3.13780134166769    9.04672147957144   15.76950228146313
O        -1.41192132404216    7.87926199527523   14.86711828924577

