41
CSD_code = SIVDAD | q = 0 | S = 0 | Stoichiometry = C18H15Cl5OPTa | MND = 6
Ta        8.47146201672816   12.06756383939545   16.75652681505896
Cl        7.06438699075177   12.14073919192804   18.60512026093365
Cl        8.11392529069521    9.88674682374150   16.43431319915164
Cl       10.30036318626071   11.89741007699828   18.12651807884899
Cl        9.85204209142794   12.20446333536568   14.88954573245796
Cl        6.66929923391069   12.85664051150708   15.45506903876512
O         8.74651302115531   14.21222527064066   17.00034986051000
P         7.72798473548095   15.31052215250040   16.78735497995137
C         8.45744535033684   16.80682135663306   17.51351551435711
C         9.83159794927213   16.85193108184585   17.70530784014232
H        10.42420810501945   15.98395752818532   17.45468263120318
C        10.41768730829757   17.99147578484857   18.22765299203128
H        11.48547391652052   18.02561748216988   18.38304822043125
C         9.63305353941498   19.08611388866367   18.55201678269895
H        10.08970780692952   19.97476116280249   18.96160120892386
C         8.26117798375879   19.04311711174064   18.35636412120740
H         7.65130540030367   19.89614281272960   18.61375325074336
C         7.67146621656032   17.90597258342508   17.83541428332342
H         6.60092654346483   17.86120426707318   17.69226359229068
C         7.49375253145856   15.74788901375131   15.04634984613374
C         8.39131520705941   15.25850656575310   14.10622498878842
H         9.16396266047219   14.56776588123869   14.41436252151690
C         8.26865392332698   15.63878924039193   12.78208149620648
H         8.95579764070489   15.24762076021631   12.04828165361820
C         7.26289331163633   16.51220976395902   12.40077149659830
H         7.16317480402013   16.80142792232988   11.36536410233340
C         6.38323281802765   17.01696774876455   13.34509790383102
H         5.60413259374835   17.70262676335227   13.04696805362468
C         6.49952854127474   16.64236343416220   14.67148087715383
H         5.81995750112089   17.03739774212927   15.41198992224791
C         6.18333120924024   15.07283766158235   17.70948184256616
C         6.31760207418890   15.10051261990572   19.09482751034696
H         7.30081513036656   15.23476056394076   19.52677141279702
C         5.20557035756118   14.93723627334202   19.89793465533681
H         5.30983871815140   14.94382762124050   20.97217612089027
C         3.95935960438778   14.75577004724362   19.31887148815420
H         3.09007307620184   14.62225732280572   19.94510372623186
C         3.82610340354855   14.73849021530357   17.94046200852306
H         2.85463355564339   14.59284805868808   17.49299014963147
C         4.93618000722430   14.89709665956943   17.12850831777364
H         4.83886464435813   14.86277185815432   16.05438150265566

