90
CSD_code = SIVKAL | q = 0 | S = 0 | Stoichiometry = C47H36NO3P2Re | MND = 6
Re        5.83681756239293    1.43023865924893    4.63315207567581
P         7.02631327707155   -0.69035631804450    4.79738056620368
C         8.74445793684798   -0.59151880867294    4.21964160580587
C         9.69685395473788   -0.00365099778318    5.05059982397236
C        10.98129469562997    0.20963837636175    4.58819802487402
C        11.31983172061714   -0.14543355292832    3.29188690414701
C        10.37340318814461   -0.71850920864199    2.45921407602386
C         9.08693028279377   -0.93910714436223    2.91723288782785
C         7.16278787646664   -1.47246108892321    6.43859088331851
C         6.05710930139156   -1.35872802851579    7.27599218938581
C         6.05867093499483   -1.96632519883949    8.51733293487116
C         7.16543594005810   -2.68922830513601    8.93329385126216
C         8.26827650220646   -2.80374839474292    8.10385962826536
C         8.26998185463210   -2.20146140018950    6.85784398870802
C         6.35984858832020   -2.07769749574372    3.81679403506818
C         6.90784434568845   -3.35035813788219    3.95697625723981
C         6.40768203974338   -4.40319563254068    3.21505232791933
C         5.35980129096713   -4.19713103025599    2.33085845250651
C         4.81423510900440   -2.93309812340438    2.18826272830491
C         5.31052861237656   -1.87527404270050    2.92989800946651
P         4.95117964628171    3.46095476372608    3.62955010307043
C         4.03297072980813    4.62032052075687    4.69799190288661
C         4.04030576060703    5.99967028518265    4.52849711766794
C         3.26424270082421    6.79942572135683    5.34884688861912
C         2.47575951624167    6.23114130429554    6.33517908251011
C         2.46612318333786    4.85611816728761    6.50716223905195
C         3.24219936150890    4.05336666745495    5.69274115820241
C         6.23784975364362    4.49809377325328    2.87829705782038
C         6.53122838002561    4.42852035597468    1.52042988678489
C         7.61469790443175    5.12196135172808    1.01152060274612
C         8.41430065309328    5.87837282853070    1.85187152163227
C         8.13093177191179    5.94455161064852    3.20697975079261
C         7.05231833681348    5.25152175399320    3.72220189845101
C         3.73980892052014    3.26977150540114    2.28038314192649
C         3.23052021995757    2.02074707932739    1.95390300370105
C         2.28864289890819    1.89663267734651    0.94738751195479
C         1.84830334217946    3.01806149798678    0.26614152505045
C         2.35147078156918    4.26842719520367    0.59238796723454
C         3.29163302626131    4.39714448557604    1.59619804269826
C         8.54275940195030    2.90119745585045    5.15877538282751
C         9.79908004969781    3.41982304604102    4.82930329796226
C        10.26044608031392    3.30205835119600    3.54648166714273
C         9.46060202266251    2.66141583506969    2.57839173228128
C         9.83374572396071    2.48725309197519    1.23976788424462
C         8.98145803581322    1.84699995840379    0.36833855280012
C         7.74647281227584    1.36463011943987    0.77059426238293
C         7.31279857999639    1.50959981168420    2.09211692534152
C         8.20228684087335    2.17054313207994    3.01118379599363
C         4.11014091849766    0.58640389573945    4.84754045820663
C         5.77311686489814    1.90365304311550    6.50073420449426
N         7.76875989720935    2.29615005010354    4.28121029701305
O         6.17364352920915    1.08839161906714    2.50002654826756
O         3.08479724210114    0.06872659264709    5.00026329526972
O         5.77041436624110    2.21511183645212    7.61629280918828
H         9.41729836908213    0.28710951519013    6.05553423249652
H        11.71754000978837    0.66310230151585    5.23609348964494
H        12.32123961381590    0.03176503142425    2.92843709987482
H        10.63408390021866   -0.98567228417267    1.44586069358839
H         8.34352887159864   -1.37603280361726    2.26441855847591
H         5.20756033767169   -0.77650687439191    6.93994482712650
H         5.19895855927506   -1.87197729583129    9.16337494416662
H         7.17152604221720   -3.16014783750929    9.90520509112310
H         9.13333684860523   -3.36464817317472    8.42752612796155
H         9.14016201165638   -2.29170041137705    6.22141743571169
H         7.72295674506996   -3.51492666095500    4.64754790245454
H         6.83530830267893   -5.38911378541276    3.32658396574733
H         4.97160852597980   -5.02376422948409    1.75389420972312
H         3.99956731968643   -2.76962532551709    1.49812185644190
H         4.90016759095954   -0.88383280207988    2.81120327207419
H         4.66050831357918    6.45583887118105    3.76871677088544
H         3.27645708683246    7.87183951708104    5.21682520693110
H         1.87330666942785    6.86135539992955    6.97262191776133
H         1.85753007949749    4.41021542522646    7.27937396560147
H         3.26048139837131    2.97760962571031    5.82204266696576
H         5.91493971462119    3.82737830146017    0.86614031488105
H         7.84113822425658    5.06174039542957   -0.04266740647732
H         9.26391666293195    6.41195711333090    1.45206736771674
H         8.75841397009950    6.52906833058954    3.86428501286197
H         6.83208123467853    5.28143615857071    4.78219916331227
H         3.58432810057659    1.15110183476020    2.48668855947370
H         1.89534767299194    0.92244952236510    0.69704194266307
H         1.11227072139594    2.92259926975731   -0.51849611339083
H         2.00882575279637    5.14468305009905    0.06151668960052
H         3.68313390510377    5.37302116878873    1.84745685797355
H         8.16275379226472    2.98484873630761    6.16903551268953
H        10.38434490109659    3.90431316196864    5.59600505256483
H        11.22712575360299    3.69064188612232    3.25884646473752
H        10.79154935183518    2.85971878169805    0.90848961841284
H         9.27867702285302    1.71477148769132   -0.66345836406045
H         7.09151235521707    0.86792808712244    0.06915232520305

