135
CSD_code = SIVMIU | q = 0 | S = 0 | Stoichiometry = C63H65B2IrN2O2 | MND = 6
B         4.45005706622197   24.89156682685053   12.08721377759010
B         7.63429482759555   30.60997967049379    8.05341811205056
C         3.54617723982245   23.63805809762961   11.82903206047599
C         4.05703650434327   22.33775410149499   11.94874026921649
C         3.25071781923437   21.23648167651568   11.69216448767012
H         3.66910408270264   20.24476482963515   11.80174776806180
C         1.93020130197522   21.37960628124586   11.30432491955514
C         1.42092792046444   22.66653701480312   11.18642518734503
H         0.38915816575663   22.79713819534638   10.88858098435883
C         2.19933510325464   23.78071230365522   11.44729920685616
C         5.47079794398545   22.07404737374296   12.38643109718263
H         5.48825553552673   21.29538669774259   13.14814087335867
H         5.94475980162785   22.96618942078998   12.78252555277802
H         6.06270510114226   21.72395863952714   11.54061734086285
C         1.06238450441732   20.19129130131311   11.01955623949421
H         1.59185172749184   19.26385983743731   11.22386658351434
H         0.75318398200625   20.19078475455030    9.97442950485962
H         0.16172941452766   20.22153517969852   11.63167964077129
C         1.59403716608169   25.14471410033399   11.28669730221156
H         0.52435972283398   25.07166250840922   11.10346941626894
H         2.05068827394276   25.66809076953265   10.44758401654781
H         1.75924509587553   25.74485557566293   12.17855222038811
C         4.08972708966859   26.04250416190990   13.09663930847382
C         3.85120320663798   25.76322702337465   14.45242302653596
C         3.65087185381864   26.79328469050748   15.35727265501178
H         3.47542343869938   26.55626914933584   16.39820826021554
C         3.66496142151952   28.12212261080742   14.95946257623613
C         3.88619895930747   28.39851623236233   13.62037432504825
H         3.89183804610174   29.42538273757382   13.28083470785365
C         4.10167487795674   27.38686772238094   12.69631751550803
C         3.84598064700168   24.34652154628823   14.94877328203718
H         3.56364187640980   24.30696372686547   15.99856027583471
H         4.83455829602336   23.90249818612091   14.84115391525287
H         3.14801957283054   23.74135090232389   14.37447767644215
C         3.41142276949695   29.22124451969102   15.94730708354221
H         3.88602254162724   30.14752235799078   15.63136417858364
H         3.78171632648884   28.95015332523570   16.93380277938552
H         2.33967162885348   29.40592359247562   16.03255687242213
C         4.33351522076098   27.78300751825116   11.26600063104091
H         3.67023567310574   28.60066901767859   10.98773216241582
H         4.17121989398776   26.95083845916953   10.58827948433402
H         5.35988531856361   28.12803155519115   11.14082706574826
C         5.81874534583854   25.03912371797031   11.35268455091934
C         6.82350422231396   25.81186080286591   11.94558440553002
H         6.61493458195556   26.24308746169567   12.91519828272931
C         8.04444150517220   26.04892564591131   11.33942028214902
C         8.28063142350466   25.46310793798682   10.07839699106490
C         7.30547819630798   24.66158427106754    9.47946362255087
H         7.49049249740684   24.20251138927096    8.51868585763010
C         6.09585708646220   24.45949950977464   10.10686533447951
H         5.33670945431580   23.85543408124225    9.62942854415563
C         9.56891825009241   25.79279006766632    9.49492649466440
C        10.02351156492334   25.36613629443845    8.24844291249428
H         9.40565669655543   24.71816938268375    7.64932647083584
C        11.25698468546294   25.77733454185561    7.78593824298453
H        11.61702120824241   25.45814132718233    6.82004949320164
C        12.02300534071838   26.61301354491674    8.58771755233870
H        12.99086783279114   26.96313024671189    8.26644187058393
C        11.52059219070986   26.99562445223699    9.81632811892525
H        12.08639828825430   27.65229020888597   10.46281479503008
C         8.04366034871122   29.46952283681521    7.05077769733681
C         7.40609081565177   28.22016883917659    7.07647392608555
C         7.84309142112488   27.18990945927062    6.25719061526629
H         7.32537778677785   26.24087453140709    6.29059536817981
C         8.92074561153485   27.35117044534874    5.40203659881251
C         9.55283604532747   28.58559850165178    5.37515754537811
H        10.39458462768830   28.73285607136397    4.71161092216697
C         9.12797461131241   29.63541619397745    6.17359964895007
C         6.22945976637756   27.95267447590788    7.97121424079169
H         5.48148996019458   27.36071941491732    7.44579726958558
H         5.77136389280678   28.87412757280178    8.31646917847969
H         6.55146251009574   27.38530868100541    8.84449092630768
C         9.37009004941699   26.23922710150248    4.50217039732861
H         9.13345548453998   25.26870219352247    4.93246184551854
H        10.44104808422010   26.29606925380084    4.31890709038279
H         8.86254521507960   26.31176873690293    3.53924255293966
C         9.86667979425960   30.94082678687467    6.11374361353336
H         9.17713436336914   31.76436704209468    5.94250047280594
H        10.60570019236378   30.92935130083889    5.31560205920289
H        10.38052848739303   31.12994152988395    7.05528156221153
C         7.24897309674543   32.06473775619892    7.61690225136421
C         6.22454748685020   32.29500657745908    6.68296436225480
C         5.86432905935064   33.58798173640466    6.33660726882946
H         5.06791260242704   33.74024757762535    5.62047652372965
C         6.50522725578515   34.68987617767684    6.88137710833290
C         7.52591075820711   34.46490237935342    7.79243082809022
H         8.04683373713632   35.31029981816431    8.22197904036915
C         7.89747139164673   33.18232468513164    8.16584643370045
C         5.48008625183369   31.14556984039350    6.06882419713232
H         6.17318548490491   30.41589865310985    5.65670051369949
H         4.82090821448294   31.49331087879234    5.27658662853995
H         4.87500590892906   30.63878461435985    6.81971038545738
C         6.11895554513070   36.08754434660336    6.50207578521069
H         5.33851861184989   36.08479679137527    5.74507371381279
H         6.98069997687585   36.62835735495893    6.11244972330256
H         5.75421554560323   36.62940531344247    7.37448174872267
C         9.02917123095859   33.04233777767615    9.14559428525070
H         9.84259049826142   33.71568450969393    8.87807379000474
H         9.40867006600325   32.02635030232404    9.18172825398690
H         8.69053321474969   33.31167632144071   10.14613779834034
C         7.66070700764421   30.22663361932548    9.56545496558571
C         6.88985658279210   30.87391719980475   10.54106680391016
H         6.25637900383991   31.69898780794895   10.24588650835035
C         6.91527517671133   30.46623988287928   11.85661596742710
H         6.31113518514348   30.98530435401550   12.58710474997356
C         7.70933019917663   29.38223848568088   12.23914119386300
C         8.50807351489508   28.71421751194119   11.28789696780742
C         8.47064536719202   29.16344301020176    9.97986334034134
H         9.07866533326383   28.67658894959773    9.22958911599881
C         7.78252234464027   28.82838283969174   13.57947016842827
C         7.06701842199754   29.28869808392081   14.68327223940852
H         6.41248621902667   30.13765781387015   14.57743440394097
C         7.19504543788597   28.65406764245705   15.90201364241512
H         6.64101659373403   28.99724261105685   16.76208752936259
C         8.04867656595902   27.56308575957356   15.99728601109548
H         8.17768734598402   27.03368865851846   16.92770870153321
C         8.73646636018160   27.15938823124657   14.86929978564445
H         9.40323105909195   26.30884504446113   14.90535772683536
C        13.34222440326436   29.03768776851266   13.67480235679097
H        13.02032893035053   30.00749190539132   13.30308549912150
H        14.30728360900574   28.78499764145918   13.23987429427875
H        13.45797028146531   29.08726112735364   14.75563891922624
C        12.30941444139345   27.98232571641145   13.31112052774844
C        12.60480988227704   26.67431312591215   13.70806928899532
H        13.54173742993644   26.52096227489577   14.22345026965591
C        11.80501894006458   25.54548327234738   13.50345615577327
C        12.36699180838529   24.22970162155071   14.01888353910065
H        11.66179700478096   23.42694363165659   13.81744959118644
H        12.54773566357454   24.29252779772782   15.09024136397333
H        13.31206903423126   24.01056601871276   13.52610520932793
Ir        9.55305143932482   27.17334166263811   12.02289106090336
N        10.33251399395016   26.60489315319041   10.26890775776591
N         8.61676111951490   27.76371551399525   13.69050090419804
O        11.30009778691305   28.37678608918837   12.68098034800329
O        10.67726417203489   25.50044071719621   12.95797075543344

