81
CSD_code = SIVMUG | q = 0 | S = 0 | Stoichiometry = C39H31IrN2O6S2 | MND = 6
C         7.12517040961919   20.28208447906133    5.82369540074430
H         6.27569624114556   20.01655159513325    5.20916148597783
C         8.22637806430059   19.45230268241110    5.90692111720422
H         8.25253351588396   18.52721778258159    5.35397699623192
C         9.28572226570121   19.83494251902898    6.71881110619219
H        10.16120331610860   19.21078871271946    6.81177813244215
C         9.19423404581418   21.02632881489888    7.41172831610866
H         9.99767686179157   21.34173940203688    8.05672275968161
C         8.05382318947927   21.81821590960307    7.28652100954290
C         7.81983484679136   23.07648092905767    7.98411751212630
C         6.54176991785914   23.63591654844907    7.76471217102830
C         6.24833124597912   24.83611194848068    8.39948932403686
H         5.28332648213005   25.31111663196765    8.30543009209826
C         7.19228525011251   25.45969098172406    9.18927044657589
C         8.44619287882651   24.91585381752332    9.39926127992283
H         9.14828977207117   25.43818274015468   10.02949568184161
C         8.75529731961177   23.70758947363283    8.80575715730300
H         9.72914346541540   23.27148662250904    8.96903770577439
C         7.47291365686153   28.11623031028916    8.46765310861192
C         6.80683632641566   28.12219029163667    7.25680607110215
H         5.88993526116373   27.56279634214662    7.15829972613265
C         7.32493067403814   28.85802620999668    6.20495619574324
H         6.81468348360139   28.87499782029614    5.25339525439112
C         8.50001191059234   29.57446049200098    6.37546009317442
H         8.90174595484985   30.14860515213397    5.55344655994423
C         9.15911265192952   29.56123553309524    7.59425947812896
H        10.07106395921651   30.12467641356229    7.72268144896355
C         8.64435267731879   28.82338570150074    8.64820626939748
H         9.12485160319632   28.79308296588395    9.61364849469832
C         3.86416049428895   25.07055456045130    5.70054852923268
H         4.73254078383893   25.30615562193167    5.10039365178824
C         2.77527582836546   25.91975933748530    5.73543004041941
H         2.77722399955068   26.82957888684270    5.15698518762522
C         1.69107409733306   25.57689422091333    6.53235641514379
H         0.82423198617434   26.21729818026714    6.58777414783257
C         1.74723371146685   24.40468484382770    7.26068152863840
H         0.92447735395575   24.12071105505843    7.89578911091867
C         2.87727946249015   23.59191431233102    7.18466839382618
C         3.07644220600450   22.35211698339199    7.92429158979547
C         4.35004381357290   21.76683119478964    7.74982537029244
C         4.60801762969060   20.57883439057465    8.42288028314317
H         5.56394459152884   20.08037498531013    8.35883690579104
C         3.63810549103555   19.99729420167660    9.21309773116666
C         2.39041609303223   20.56939316392629    9.38294139694750
H         1.66780402417916   20.08043069599805   10.01681897663584
C         2.11316293713615   21.76192861692832    8.74442253961061
H         1.14369740210419   22.21874765300381    8.87327518749582
C         3.17164654203974   17.31151591546804    8.68061221443854
C         2.08439741155654   16.53934457536825    9.03588551505391
H         1.73942743004965   16.56994200384731   10.05760521362430
C         1.47639269253409   15.74416106861188    8.07761363543428
H         0.62781691740579   15.13154041259571    8.34248661005166
C         1.96029893828808   15.73790434316763    6.77944972473008
H         1.48686292539247   15.11789529435110    6.03244171368860
C         3.05108909669232   16.52121032153007    6.43292140534974
H         3.42314147114996   16.51170171737113    5.41947431452656
C         3.66171127544433   17.31532986512650    7.38847569904950
H         4.51376281412836   17.93205683441995    7.14923670101255
C         7.30742818283289   24.35658802841042    2.60306047907632
H         7.92493959612443   25.02079259334527    3.20288006323631
H         6.69589521900655   24.94518765799389    1.92218847338104
H         7.94847599831879   23.70786882493850    2.00986834131663
C         6.42321092997233   23.52099766146805    3.51222966969329
C         5.55453084780308   22.62923960955659    2.87623264140914
H         5.58038263131550   22.61245449097920    1.79678492060646
C         4.65486487432011   21.75788731458241    3.49724810124742
C         3.81328266631101   20.89551575799396    2.57272823070294
H         3.15111960990821   20.26556983733763    3.16171486495073
H         4.45598723526963   20.26984217074842    1.95653025159606
H         3.21928899673767   21.52535988622995    1.91400682272866
Ir        5.47441710881332   22.67964478370943    6.36732043979248
N         7.03404797434822   21.43339832574191    6.48390545854283
N         3.92083700393164   23.93680569540135    6.39446496810791
O         5.38961062292810   27.27725818737554    9.84650912608396
O         7.57654825338734   27.37188520676724   10.99890403459029
O         3.27369288199606   18.21563527509454   11.15590465833776
O         5.38069067197413   18.12328664068595    9.86429536787706
O         6.54626793506323   23.71670353350429    4.74671868406091
O         4.47304371224769   21.59968153725500    4.72991689676857
S         6.81903171232380   27.10160717457360    9.80456696410593
S         3.96227866682577   18.37439572628447    9.90150041342912

