109
CSD_code = SIVNOC | q = 0 | S = 0 | Stoichiometry = C27H63LaN3O12P3 | MND = 9
C        23.31426752225957   15.30434270470912    4.72550921607184
H        23.63953214807807   14.75687045259399    5.61951225700925
C        23.04300954696037   14.28846943506417    3.62123567904982
H        22.89344542303990   14.78171257046615    2.66309869887106
H        22.16544432800849   13.69412483076136    3.86803388053120
H        23.89202635077842   13.61425870825798    3.52558902315337
C        24.39972840633398   16.29134221526526    4.31620448162278
H        25.31913109172383   15.74495752748856    4.11207080326462
H        24.60684309870763   17.01399814418789    5.10058900252816
H        24.12425621688405   16.83191120092023    3.41428831521003
C        22.15714750915982   17.45532836875374    6.46723348991449
H        22.73614541003701   18.23073492806915    5.95924389248611
C        22.97987178720669   16.85463821260342    7.60310470438405
H        23.15313706703661   17.60008485948429    8.37841379811191
H        23.94487147071973   16.49373722572314    7.25627749432076
H        22.45010936547674   16.01424140831369    8.04860764947401
C        20.85454076873184   18.04797755079993    6.99548825116886
H        20.17724256341577   17.24516195871196    7.28665840896310
H        20.36427692799241   18.66583142354498    6.24525200755632
H        21.04677688497761   18.66744238589422    7.87006584732886
C        20.72239309509414   16.84231344404144    3.91020636129644
H        19.90205930116434   17.30783212821004    4.47047494066464
C        21.43900580891975   17.91143194120188    3.09918008218601
H        22.19591782907783   17.46817570052675    2.45753802898500
H        21.91642266409804   18.64608308291187    3.74332347014417
H        20.72506986434443   18.43045871480460    2.46071228804917
C        20.11796852383605   15.75772019325336    3.02325126340062
H        19.22057428804478   16.13125534855357    2.53243881468541
H        19.85304614045983   14.88537428356301    3.61816995856805
H        20.81629780978182   15.44976846290353    2.25034935876635
C        16.37229110278311   15.21770033756302    6.43701261960046
H        16.71036558817628   15.57876313267913    7.41382094771733
C        17.44239213773175   15.60132743812537    5.42108670228839
H        17.11074302556534   15.42437064809156    4.40185881770473
H        18.35446302749198   15.02946407244445    5.60082157041732
H        17.67570969298997   16.66013663826277    5.52546520151544
C        15.02592706574638   15.84215306098688    6.09418468931618
H        15.13640019861981   16.92209034356103    6.00649480227538
H        14.28538159344953   15.64296230977049    6.86336513858055
H        14.64723716158280   15.46446695261779    5.14748725820266
C        15.36370932373177   12.56387465819567    5.28006226182046
H        14.32628829411013   12.90789374589714    5.31863453329269
C        15.97458913482639   12.91837083609249    3.92929894831990
H        17.05470665611296   12.79365079288493    3.96101724972196
H        15.73845093854165   13.93864461396452    3.63689883145504
H        15.58461610512562   12.25018807550621    3.16300373568341
C        15.42270448712301   11.05612620251419    5.50088649327988
H        14.82956413062553   10.54303437319388    4.74545936989112
H        15.04358327748272   10.77778225126993    6.48199487853787
H        16.45191522154332   10.71539832791193    5.40992569328575
C        15.40218575710512   12.98380507636743    8.24490120516398
H        15.70138456319327   11.94420247664879    8.42316173551393
C        15.98173732007955   13.83550422553119    9.36825958602079
H        15.62582739969203   14.86167198464048    9.30694790611286
H        17.06846049066506   13.83577707017934    9.30736262029974
H        15.68673738958734   13.43899940586465   10.33899844029222
C        13.88184041185852   13.05930569554095    8.21099248699660
H        13.48193649358003   12.70421619231144    9.16038647016320
H        13.46555677410307   12.44223442090142    7.41918594373616
H        13.53800345666323   14.08035681772528    8.07042021242683
C        17.80366943623349   10.29856326262643   10.16778583774157
H        17.09958923418782   11.11023023642521   10.39188482334211
C        17.50016810699880    9.79586224338560    8.76008531555425
H        18.04637157735779    8.88365956833990    8.54022461825345
H        17.78002851626992   10.54888163126281    8.02415046321074
H        16.43680346619292    9.57802966272629    8.65825456243416
C        17.64730889791919    9.20238378367158   11.21099829806967
H        16.60806357434484    8.87780859263102   11.25319205215934
H        17.93467145715741    9.55139833438091   12.19987894234131
H        18.25362245704977    8.33734527005476   10.95605314826256
C        20.91239324099383   10.08039663135566    9.98914766609245
H        21.71971057880632   10.80667110052105    9.84285728184180
C        20.81555787234769    9.23510300538786    8.72417149135946
H        21.80197635309671    8.85514534006373    8.46321556664355
H        20.45236877908106    9.83308493867714    7.89173224345989
H        20.15797563421003    8.38067113716408    8.87290345544469
C        21.22280381414441    9.20512757430260   11.19808250567563
H        20.43953499441463    8.47132665202483   11.36865920970886
H        21.35094531707907    9.78787556223702   12.10550621422093
H        22.15054790278646    8.66503508711571   11.01457849421331
C        19.63474914400070   11.97556076406624   11.86838594901746
H        19.63359929052638   11.19145573397280   12.63095314645067
C        18.48905578356557   12.94199848854140   12.14224322500900
H        18.61324439885356   13.39189623270391   13.12619697396691
H        17.52458824617227   12.43872507667159   12.12056082257475
H        18.49676600447843   13.74320776285172   11.40723547588309
C        20.96954881023644   12.71570383820122   11.88121356499559
H        21.05399365140172   13.34827228796321   10.99972951541608
H        21.81343639131070   12.03047008131516   11.89138908727439
H        21.03497065552234   13.35292692662165   12.76160606157618
N        19.81797519153080   14.84745458811864    8.98315311818657
N        19.28554383207200   11.60374548855579    5.20734923058741
N        22.60099704149942   12.72999878794776    7.18454972696675
O        20.84283956402871   15.10461368681983    5.98437735393482
O        17.67870860015286   12.79093552477678    6.76997049985635
O        19.37006399490751   12.25443132967143    9.13804122089146
O        20.96342015840687   14.48148417900411    8.71657634686070
O        18.98102828368559   14.85430456149368    8.07402691381559
O        19.52372649555902   15.23147065493175   10.08103950620173
O        22.00939573969983   12.17517869487073    8.11027952729626
O        22.07527317272360   12.69035323190457    6.06536606622677
O        23.66531939278479   13.26430420000625    7.34303211813423
O        19.73683453327082   11.14879966958395    6.26407814656443
O        19.53755663163724   12.77277217744842    4.90879912726022
O        18.62791942492803   10.91283887965704    4.48156796471740
P        21.72584869138107   16.08303922426516    5.28387889750714
P        16.30893678869494   13.37288645173608    6.66354018864098
P        19.43695740993762   11.19380239519999   10.19153188254045
La       20.10662403414594   13.14831787818984    7.08914833417940

