108
CSD_code = SIVREV | q = 0 | S = 0 | Stoichiometry = C37H66Cl2OsP2 | MND = 5
Os        7.86979812853283    3.65691343467612    3.33013989241460
P         6.67052189017438    2.90509094258447    5.23307002202550
P         8.60640574034296    4.08340475425795    1.11785822738873
Cl        6.42498112432285    5.48094436970737    3.12536670855378
Cl        8.63250798337492    1.45797042084032    3.11508289997822
C         5.18912218955329    1.87755808752325    4.73727241239919
H         4.50786465070905    1.84522832444204    5.59708424834198
C         4.48999095608750    2.58637239435384    3.57333322053595
H         5.17342531383042    2.62930610943276    2.71846156868464
H         4.23635508693651    3.61461759643588    3.84516180763424
C         3.23413664977819    1.83854091515658    3.14117385179109
H         2.51810257621726    1.82135387604910    3.96701836803343
H         2.76324057669153    2.36170575131086    2.30505622597444
C         3.58400744921761    0.40888310775219    2.74094708436371
H         4.25598565912201    0.42180016726065    1.87862209645066
H         2.68056082291194   -0.13099907802644    2.44912506679564
C         4.26837206988651   -0.30403483585478    3.90208785541742
H         3.57403243413535   -0.36777106352786    4.74483110719193
H         4.53324944250748   -1.32267074355557    3.61086036487436
C         5.52914692445148    0.44009228222248    4.34002223382270
H         6.25791498889790    0.43423379007277    3.52575616250364
H         5.97202703701378   -0.09280007747859    5.18331427971788
C         5.89906583461031    4.30581880289286    6.19444411435783
H         5.40859781624812    4.89029612821653    5.40205782812123
C         4.84515407900632    4.01630080710657    7.26092728335519
H         4.04456936764641    3.38503806331433    6.87040826211298
H         5.28923379299065    3.50979378809047    8.11790366126842
C         4.24127665992688    5.34259725648649    7.72639747885239
H         3.48340475056531    5.15085253834943    8.48979602442483
H         3.74975745040347    5.83053619881303    6.88152221937447
C         5.31894893944905    6.26798602270483    8.28361776556360
H         4.86934368170793    7.21424024896355    8.59083754514612
H         5.76717739572537    5.80918013833568    9.16866359551395
C         6.40349819845173    6.51818837653112    7.23927168087685
H         7.18754335919689    7.15124764927989    7.65842381405757
H         5.97582293173547    7.03811216938890    6.38017609778335
C         7.00014909882656    5.19289463343073    6.77684930360637
H         7.46602749743075    4.69590552862899    7.62953704546333
H         7.76916285615783    5.36445163949453    6.01452352216710
C         7.64769992377992    1.77879834552386    6.34645201355784
H         7.81316172662853    0.90074107650356    5.70653914138944
C         6.96075757849673    1.32479041636751    7.63100865889430
H         6.90013824541046    2.16031178090598    8.33011380825159
H         5.94725600535952    0.96761092493299    7.43416424686480
C         7.79030731238122    0.21301533198317    8.27253304266322
H         7.30781303212489   -0.12437312756072    9.19287191351368
H         7.84436635174570   -0.63948348113738    7.59131757591298
C         9.20167792795060    0.70915696288031    8.57598130652669
H         9.79311358131605   -0.10146263582940    9.00624766755619
H         9.14980796452284    1.51229870182103    9.31514495695800
C         9.87683241917000    1.23253584008289    7.31022553703402
H        10.00071077530384    0.41588720971278    6.59634257951771
H        10.86819740266943    1.61967066883855    7.55099555859539
C         9.03403523963553    2.33414074029089    6.67351622757438
H         8.95899455545203    3.17500245659900    7.36283449530927
H         9.50998035483643    2.69710296296927    5.75622563566377
C         7.38098385128424    3.46386196238283   -0.14939022375076
H         7.85598764741279    3.56608175742071   -1.13469455547133
C         6.08584675668424    4.28021618310306   -0.13422312130509
H         5.61283894241999    4.21602995649932    0.84905971961356
H         6.29107631938734    5.33519052446726   -0.32199565531109
C         5.11355446057589    3.76486896407041   -1.19254874439194
H         5.55676733393089    3.88948595996963   -2.18467039246732
H         4.19581533776398    4.35609583053067   -1.16090281380260
C         4.79477458348231    2.29141641982183   -0.96376964457755
H         4.29073357837256    2.17526909385076   -0.00082207846668
H         4.11565438719870    1.92926501201991   -1.73868388370169
C         6.08066709404347    1.47114339230026   -0.97109800567572
H         6.54805671562912    1.53728915268526   -1.95730283335698
H         5.85695629732735    0.41890564387158   -0.77945286125044
C         7.05359328904385    1.98689966273408    0.08493460993326
H         6.59832677124003    1.86110026385955    1.07157101366228
H         7.96143862647973    1.37992590898499    0.06907533711796
C         8.76292713940067    5.89615076652442    0.72222776466630
H         7.78915617642663    6.28771953324879    1.05144580809640
C         8.97259623115308    6.31982468378084   -0.73019692384835
H         9.97569079205247    6.05585184789027   -1.06443689275144
H         8.25700820010889    5.83649482149375   -1.39758422173546
C         8.81015576910660    7.83770699233807   -0.82199652583015
H         8.95043880291208    8.16044423127747   -1.85637398625099
H         7.79705359073930    8.11287221781669   -0.51969221263876
C         9.81661713774817    8.54304948571169    0.08339130740930
H         9.67056875135454    9.62343376261851    0.02555183512487
H        10.82926985748301    8.32492592500094   -0.26540953240191
C         9.66818347306913    8.07329701139717    1.52878650369611
H        10.42135240540489    8.55384721134196    2.15564542541716
H         8.68504739027737    8.35673867983654    1.90881042407591
C         9.81817247776810    6.55718244344921    1.60838813773365
H         9.69339977786386    6.21164801709756    2.64152951991504
H        10.81841777162974    6.27951457319748    1.27166333482458
C        10.16639582284282    3.16669208784874    0.66707141615224
H         9.85267650825926    2.11465366377844    0.72417510249436
C        11.25817155777608    3.35139454558140    1.72295125262424
H        11.67704987154221    4.35606652659478    1.66414817441151
H        10.83280162947903    3.22744933334876    2.72393764984513
C        12.36595509388802    2.32840438159933    1.48815647953648
H        13.14937915357783    2.45555666795559    2.23705532879997
H        11.95593461817484    1.32283536879789    1.60089772899107
C        12.95300319958902    2.49101602675786    0.08831689403407
H        13.43242577529739    3.46994102595225    0.01007718522708
H        13.71715688886528    1.73114925027228   -0.08706668767014
C        11.86131768243755    2.37993823043924   -0.97265934071674
H        11.43263955855424    1.37528893393496   -0.94900255118867
H        12.28941942887359    2.53748642554021   -1.96550710734121
C        10.75989479924746    3.40883806738963   -0.71776802106256
H        11.20064746457640    4.40565317965974   -0.76199495665915
H        10.00039025993868    3.33328466732146   -1.49877221786940
C         9.24287914872441    4.46727903406579    4.18793072537009

