122
CSD_code = SIVRIZ | q = 1 | S = 0 | Stoichiometry = C44H73Cl2OsP2(1+) | MND = 5
Os        3.89387342962468    8.80130955355598    3.59142336914450
Cl        3.52919943552451   10.78391387528330    4.64672447992784
Cl        5.20061783693175    7.49676569357432    2.24839507865251
P         3.12786018366664    9.88784315102628    1.55373633996301
P         5.38842147178186    8.37615875247139    5.46570249490684
C         2.51182959940473    7.71895246631703    3.97608273029928
C         1.40557678216557    6.85552226648859    4.29021341912681
H         0.47219456427888    7.43220840475767    4.25338780878627
H         1.51643057469126    6.49947720282817    5.32419441384571
C         1.28121460904297    5.64093761535954    3.37786554559335
C         0.02636695215629    5.10357890760345    3.13089475399042
H        -0.85357227659905    5.55608009826727    3.56402049476947
C        -0.10070479378110    3.98002920728011    2.33183862671628
H        -1.07942974773095    3.56459058844862    2.14690898838642
C         1.02149524752034    3.39177380098373    1.77407919223421
H         0.91941640127053    2.51556911644645    1.15295453688453
C         2.27328492194568    3.93242384644568    2.01454488559084
H         3.15129138156237    3.48054081204442    1.57981973850440
C         2.40543896366087    5.05348209836071    2.81486730989868
H         3.37909949855503    5.48634275953874    2.99224079989445
C         2.76404385048905    8.67903353512219    0.18658617523634
H         3.65888087318741    8.04035521357638    0.18024198891595
C         1.58338840508671    7.78434479084566    0.55866283384664
H         1.70383176041164    7.43457430998271    1.58914166705886
H         0.65056010548454    8.34541791592664    0.48599698989130
C         1.51975862568782    6.59679535592259   -0.39741686650152
H         2.43056749835813    6.00408475493557   -0.29644143736566
H         0.67710268092806    5.95607506319528   -0.13342631779307
C         1.37855372726802    7.08870081769594   -1.83551815957382
H         1.37577367441465    6.23905169987559   -2.51882116697766
H         0.42511772020994    7.60927882051266   -1.94894046919767
C         2.51886408882158    8.03635707291849   -2.19682996973497
H         2.38467337447720    8.40551167472354   -3.21476434564791
H         3.46650609133534    7.49461505412864   -2.16012796453362
C         2.57020039832758    9.22143883413152   -1.23042766011850
H         1.63486637015818    9.77412734811529   -1.30664496049243
H         3.38120408845712    9.88893072673086   -1.52328850839465
C         1.67629819486815   11.01137081073290    1.87355971493551
H         2.10967657840962   11.83183179034743    2.46131645027862
C         0.61054650457398   10.35193323074836    2.75229744127667
H         0.09434015171852    9.56864658100799    2.19631192527771
H         1.08249415485984    9.89426211138639    3.62861731724634
C        -0.40313123574877   11.40457766222705    3.19864805674370
H         0.10317753390849   12.15828952383904    3.80469511269330
H        -1.16874886123570   10.93755013286312    3.82001318668988
C        -1.05150127997498   12.07119886611416    1.98880815075074
H        -1.74387706936446   12.84565320201474    2.32004511621944
H        -1.62522578438436   11.32898606616344    1.42922699628667
C         0.00996052639172   12.68156428718199    1.07893726859362
H        -0.46268158913785   13.12210769784285    0.19975411103631
H         0.53327727741314   13.47876166181386    1.61117936499695
C         1.01270312264061   11.61548450383987    0.63738368844180
H         1.74992882176020   12.06298826562950   -0.03187885542168
H         0.47406503775350   10.84026525555413    0.09104451322995
C         4.41237468300713   11.02748278376959    0.82600520562335
H         3.89206101999972   11.54570487730515    0.00749797729580
C         5.61615274616537   10.27877123848090    0.24598657091511
H         6.17276738061889    9.78181406905962    1.04438971549528
H         5.30065041332151    9.50785439231582   -0.45801164776861
C         6.54513476890789   11.26189921640019   -0.46378034521949
H         7.39681610337341   10.72060046785904   -0.87888919314486
H         6.01270581105214   11.73174112265239   -1.29424840571145
C         7.03064274773058   12.33664948395558    0.50302911916387
H         7.63346401387799   11.87213225656881    1.28750819497100
H         7.66657392508611   13.05037236231704   -0.02182087974814
C         5.84383449415884   13.06365377224050    1.12792397295675
H         5.29313091092275   13.59694222649184    0.34965829922068
H         6.19513942880822   13.80318714943074    1.85022716500258
C         4.90654050945558   12.07864996070271    1.82303733590536
H         4.07185165568662   12.62704060387677    2.26489716815222
H         5.44970851945979   11.59055258424153    2.63865342644938
C         6.92733960276309    9.42793076751265    5.40122837618190
H         7.63757773324223    8.94813906757214    6.08743100022067
C         6.75232329431146   10.87936285516241    5.85198373916356
H         6.03076738334078   11.39682714144636    5.21647744180899
H         6.38623287702710   10.92239268164219    6.87875603086163
C         8.09462140359219   11.60758404556569    5.78219789981132
H         7.95938431110147   12.64146060907083    6.10368715458368
H         8.80070596513296   11.13500910126158    6.46922034673945
C         8.66302192827927   11.57155780097025    4.36795479094953
H         9.62592425863026   12.08283362375792    4.34048285748900
H         7.98721768789260   12.10267653049438    3.69255575489706
C         8.82915990863914   10.12777573484567    3.90479777398293
H         9.56113580437114    9.62424306012352    4.54030574964625
H         9.20623559510542   10.09956453920294    2.88033392105948
C         7.49953017478912    9.38432504099400    3.98137874074461
H         7.63616929416363    8.35077144256945    3.65134000495532
H         6.78948772888466    9.86404837030448    3.29556283853397
C         4.62901647764192    8.77993910595391    7.11435709962199
H         4.56697111183074    9.87603795796336    7.10240428269670
C         5.46802485375329    8.35417995009129    8.31800779624666
H         5.47304892691391    7.26633539047748    8.39980357121207
H         6.49973322244127    8.69729839125599    8.21603032972162
C         4.85435885371735    8.93655503725087    9.59087800480717
H         5.44645170481222    8.62940953973428   10.45426952464363
H         4.87648703107636   10.02732537060711    9.54194462020828
C         3.41310561748707    8.46363886232038    9.75342054287927
H         3.39839193978331    7.37817301983122    9.87442734191927
H         2.97961925666893    8.90390655018128   10.65173942316448
C         2.58001206879173    8.85015905056106    8.53441460985375
H         2.53525997217867    9.93763445715062    8.45217861682248
H         1.55953624036207    8.48216342399309    8.65024599457161
C         3.19481964415412    8.27072341948915    7.26097126718664
H         3.17871112131629    7.18225683836797    7.32075513496337
H         2.60912102998809    8.58008712423806    6.38749576866965
C         6.03966466441795    6.62893762265286    5.40562517339587
H         6.27463104050027    6.49122467004736    4.34037999438070
C         4.91768097993643    5.64791651145936    5.74627152939339
H         4.70740911467974    5.67973430948114    6.81644581674353
H         4.01160757137369    5.93390643740151    5.20184515866588
C         5.33867520116630    4.22941878864004    5.37309014055870
H         4.53586336871983    3.52993828756418    5.61109854709753
H         5.52225068489248    4.17497539327273    4.29847916757842
C         6.60787621298188    3.85195263988931    6.13110900658290
H         6.92768760853947    2.84951037866621    5.84538245771016
H         6.40209800298621    3.84222974280307    7.20375060530931
C         7.72256164709824    4.85042730677687    5.83557077752060
H         7.97543268281460    4.80528869685029    4.77394932394178
H         8.61652543432020    4.58667620460088    6.40275857593946
C         7.30155119471717    6.27783505956541    6.19380872709296
H         7.12055241461095    6.33866734971991    7.26689214457181
H         8.12417856763162    6.95012127554004    5.94580442847519

