57
CSD_code = SIVSIA | q = 0 | S = 0 | Stoichiometry = C26H27BrN2Ni | MND = 4
Br        2.01598638779046    2.02562456927906    1.08562295266064
Ni        2.12430389582972    1.46808817808899    3.22572972788116
N         2.78255170979845   -0.39965634467330    3.05672093995182
N         1.51180308859510    3.17068427993547    4.05040218255298
C         2.36697243303696    1.06553981066314    4.98365672321970
C         2.88423276383048   -0.18472645181272    5.34101579712038
C         3.11635611845641   -0.47051162563242    6.68397868009748
H         3.51506087647448   -1.42964614100656    6.98295974307185
C         2.83497241678948    0.49179961543212    7.64349910028672
H         3.01724061206951    0.26691606112093    8.68438650484168
C         2.32873299730119    1.73699131957227    7.29870819549940
H         2.12442472362609    2.46806422216217    8.06818119733013
C         2.09347378013569    2.03190426558347    5.95815018155837
C         3.08943597493075   -1.00345373021615    4.15939587782283
C         3.58691461476743   -2.40702812028004    4.24349078500523
H         3.63706769900262   -2.87097555079199    3.26113056158291
H         2.92480225078094   -2.98968817225008    4.88347921813135
H         4.57794062954273   -2.41748719299804    4.69686843262713
C         2.89241394900564   -1.05254806977768    1.80964198490241
C         1.75138026432887   -1.64180145004214    1.25879000787416
C         1.85830820337921   -2.26792269971255    0.02780782012198
H         0.98301761796819   -2.72398744877092   -0.41056888726044
C         3.06705871110060   -2.29796539893653   -0.64433550122840
H         3.13699859023525   -2.78765414229123   -1.60390018585203
C         4.17941483657637   -1.67765155579715   -0.10444963035863
H         5.11298593482400   -1.67400946289134   -0.64738439456247
C         4.10982802402921   -1.04176907474270    1.12484760724238
C         0.45232005261932   -1.54327032445972    1.99644883132952
H         0.45255616084691   -2.17699131083173    2.88466776775989
H        -0.37897703683418   -1.83225049002754    1.35972235552318
H         0.30110907103415   -0.50874749928752    2.32729719375765
C         5.27956497951778   -0.31241170269186    1.70974739276429
H         5.67770738494836   -0.83393451381230    2.58133442987412
H         4.96440566161431    0.68338310086940    2.03084102528672
H         6.07315132754809   -0.20712863687289    0.97537540201273
C         1.57610575391000    3.24024306746674    5.34102824536560
C         1.14877608641309    4.42142892057599    6.14531173466601
H         2.00154569474819    4.81653163476915    6.69719901641034
H         0.39839921156906    4.11357010805917    6.87297368319262
H         0.73713970973462    5.20494753513914    5.51328207600270
C         1.00992142719689    4.24402718994087    3.28270427783414
C        -0.32485143378643    4.20740723656444    2.87090487160104
C        -0.81042719181774    5.25428140365643    2.10449828385833
H        -1.83944710698353    5.23608635983438    1.77730789843759
C         0.01354882019902    6.30590807944651    1.74593139053145
H        -0.37603145236500    7.11495953577422    1.14668015833836
C         1.34309570643600    6.30986083024685    2.12813251570017
H         1.99218631013244    7.11529197017463    1.81772559977192
C         1.86338084942769    5.28008304351999    2.89561962235390
C        -1.16984555455103    3.02770929730295    3.23931129173310
H        -0.60791343607326    2.10499654778391    3.04954138603437
H        -2.08424685241219    3.00737319169155    2.65318054145363
H        -1.43088377068677    3.04328067937955    4.29868809904701
C         3.31079498048009    5.22701258850441    3.27621317409244
H         3.44802496200735    5.40608575860714    4.34355346978340
H         3.88042758685899    5.96908970428006    2.72387557373780
H         3.71178299406914    4.23644700521732    3.04877706962108

