52
CSD_code = SIVTOH | q = 0 | S = 0 | Stoichiometry = C27H22N2Pt | MND = 4
Pt        6.77092701205785    7.19683820721894    7.42947655844986
N         4.92528841133699    7.18193652197795    7.99177729949526
C         6.97597462705125    5.89192136502726    8.92650310902853
C        13.53857698426238    6.67125354613165    6.42748647061614
H        13.63953641934738    6.20731835288511    5.44776872540683
H        14.19454487722351    6.15025329654725    7.12168686674006
H        13.87260602101587    7.70476326203386    6.35189057546550
C        12.09286564836593    6.60861062283454    6.90421901256001
H        12.01143828696100    7.05419890329351    7.89814807864591
H        11.77389634371271    5.56683846163843    6.98164870655548
C        11.15018942035007    7.34827147433438    5.94954113301522
H        11.46262409190149    8.39522069159662    5.86420344420341
H        11.21127588077489    6.89855675410034    4.95231357394091
C         9.77226955917779    7.29281646905337    6.41454388621741
C         8.63957450764214    7.21803427487895    6.84094300999424
N         5.93226004543526    8.56931452076737    6.05421863129848
C         6.53407652017889    9.25420063799030    5.09012070579977
H         7.59552534955926    9.07277979424124    4.98113100622119
C         5.86144013130605   10.14405046968800    4.27175843454672
H         6.39050646100972   10.68061159841803    3.50097345275158
C         4.49851238270078   10.32655439411142    4.46777607638193
H         3.93885767601823   11.01236563783090    3.84970058430989
C         3.86674010454422    9.61489648664158    5.47006065546473
H         2.80962790474445    9.74011403470249    5.64124111122198
C         4.60591044486289    8.73477748303681    6.25900756133706
C         4.03055577108309    7.94143613336694    7.34955687904484
C         2.69361525701586    7.93098921803808    7.73383548832710
H         1.95923884542388    8.52239653839332    7.21138392317808
C         2.29860704258467    7.11529833158926    8.79383065573404
C         0.89425572921066    7.07596504984396    9.22119029820764
C         0.14342864316456    8.24680293785116    9.29924828970028
H         0.60603015780975    9.19501950812866    9.06509782519189
C        -1.17722062773880    8.20758108692482    9.70516720785894
H        -1.74596132204141    9.12365297735594    9.76997499684484
C        -1.77009743783303    6.99893001026344   10.03024135122894
H        -2.80283845145647    6.96920608339870   10.34398502243043
C        -1.03309999717454    5.82886855585794    9.95216212823003
H        -1.49210443221797    4.88331380214988   10.20084720434251
C         0.29030905047587    5.86582965676581    9.55529777055850
H         0.85606663886586    4.94851277190356    9.47985919842320
C         3.26160391637195    6.33639628560861    9.43924571206334
H         2.97519384029290    5.71590793179072   10.27285571194866
C         4.58466235918120    6.38626167586563    9.01933861348076
C         5.72740209049666    5.65508411887797    9.56539132268574
C         5.62885208129566    4.77765882377241   10.64217217599540
H         4.67572309604022    4.60503759654401   11.12231581335331
C         6.75349979305721    4.12291157038660   11.10523022492827
H         6.67570867615309    3.44272886652201   11.94137160738299
C         7.97871954820527    4.34208018371763   10.49519990276699
H         8.85665761819268    3.82826142396791   10.86085504946795
C         8.08644555808188    5.21374529008701    9.42230697064161
H         9.04970144392050    5.37272631004029    8.95929998631806

