72
CSD_code = SIVTOI | q = 0 | S = 0 | Stoichiometry = C37H32ClNPd | MND = 5
Pd        5.38366579168620    1.48034300532857    2.56360686693214
Cl        6.50678751566062    1.26995334987753    0.63707970026923
N         4.55910389685362   -0.55967755260115    2.14074273680127
H         4.45405452358951   -0.45102015220204    1.12534345899106
C         4.73399822265259    1.30006263238832    4.60184972307646
C         6.05679611148417    1.53589154872800    5.26786127627281
C         7.10217927227746    4.55776729150289    1.15361427956436
H         6.29568256423954    4.32134249599066    0.47318643624476
C         5.88139570014829    3.38247861392275    2.96368852658272
C         4.68352972104444    7.28257835091834    4.74824547427954
H         5.13054579553625    8.22150477192861    4.45534543516038
C         3.53750081806351    4.87896846947699    5.49015873714686
H         3.08649860928297    3.94216070915059    5.78467013838214
C         2.63467599764727   -1.88171635847555    4.85285299628467
H         2.08745134629047   -2.57467569393906    4.22894100033404
C         8.53529691340204    1.98019217888961    6.45974489782603
H         9.49734474025074    2.16016023485588    6.91574827605967
C         4.87984806448672    3.65824657715580    3.80910996902026
C         4.00934946701164    0.08253491309334    5.05918245037169
C         7.18342856735734    0.82634424232283    4.84522899050178
H         7.09697142164177    0.08814858081054    4.04362382253888
C         4.03917151723323   -0.14771027444984    6.43790326739973
H         4.59399943450114    0.53359640110636    7.06599402466420
C         4.48802236063455    4.89648995057469    4.46810514792794
C         3.74213899699386    7.25248670524837    5.76494051282919
H         3.45496940316525    8.16431962965525    6.26746360945613
C         7.01831006509154    4.13690631705748    2.48334592578384
C         3.23421917194498   -0.72955168192285    2.74400019318245
H         2.74133457700915   -1.63699274826545    2.36534255017830
H         2.61389010730928    0.12521769715260    2.44369727216312
C         3.29981826604050   -0.81905386975919    4.25033179317478
C         2.70268847885326    2.36828571768964    3.53651614975446
C         4.10496504315360    2.37715531942522    3.99542926496955
C         2.44768416922985    2.72036728128234    2.20726554442737
H         3.28563633224442    2.97341384115666    1.55036359680500
C         8.07274987875095    4.42353128860080    3.35624381569547
H         8.01227569883106    4.08946281252895    4.38259501352693
C         3.36794067545064   -1.20460923950301    7.01773492326168
H         3.40591070868247   -1.34442045726691    8.08754957579442
C         7.42136907701529    2.68066524229447    6.88941269854203
H         7.50996869989834    3.40802806952435    7.68312644800825
C         3.16969581978697    6.04595597010459    6.13119136470818
H         2.43347505851858    6.01426601679638    6.92183966651540
C         5.05367429302766    6.11930775222869    4.10309696335625
H         5.78198212031445    6.14943965478059    3.30745761594692
C         2.65036770998297   -2.07764975898748    6.21992271682410
H         2.11769440711743   -2.90939736589041    6.65507744581522
C         6.18896252319175    2.46141274031446    6.29891298349662
H         5.32739205552644    3.02426647185258    6.62866963289758
C         5.47783535940260   -1.68053121355421    2.36776941941755
H         5.53981180066777   -1.86284234027385    3.44642243436289
H         6.46103926861524   -1.36556403672417    1.99801526629494
C         0.34537304631684    2.04381997244859    3.87957006640523
H        -0.47409711530750    1.78030598238697    4.53178915093735
C         1.63992488586815    2.02890116180341    4.36805652999526
H         1.82811090304151    1.75191280109380    5.39567229223026
C         8.20701721487632    5.26013819006473    0.71544509552420
H         8.26232183428553    5.58315616085693   -0.31391426553509
C         8.41362932087871    1.05355926204324    5.43677476317550
H         9.28161466198345    0.51081228192528    5.09331812458716
C         5.07347437660790   -2.96671966303321    1.64893287974057
H         4.15121856591799   -3.37884367646077    2.05177068268250
H         5.85467881613850   -3.71198460397052    1.77070884925616
H         4.94331788792354   -2.78053042962606    0.58448278683566
C         9.24629982714870    5.54385264400957    1.58720559053929
H        10.11207342633346    6.08790593481803    1.23891746911456
C         9.17521897913156    5.12202959419314    2.90544602915504
H         9.98620212162158    5.33753158061287    3.58650414276593
C         1.15207771924666    2.73080226920765    1.72651140429451
H         0.96127304928323    2.99985395313997    0.69809485319434
C         0.09841757668665    2.39453160870536    2.56313034132310
H        -0.91374523680643    2.40492487385435    2.18742118397610

