58
CSD_code = SIVVOK | q = 0 | S = 0 | Stoichiometry = C26H25ClNO3PPd | MND = 4
Pd        1.76809062229400    0.18541078353879    4.26139245421888
Cl        3.72302195140400    0.28964290994198    5.52988497277383
P         2.78518397554760    0.69115547884154    2.37975783371220
O         3.82529489273382    1.87402847945363    2.20270647084944
O         3.59327762764111   -0.34827144190773    1.47121031672259
O         1.58700773878727    1.13279983418791    1.38225157751735
N         0.73118895534076   -0.23016160536057    5.95896885694511
C         2.93282129663352   -3.71081919278983    2.76594864364889
H         2.94010865683544   -4.24681816808465    3.70304605169609
C         2.63459940070996   -4.38056987379937    1.59126944023755
H         2.39931333506719   -5.43382450959426    1.61489665774016
C         2.71567076438170    3.35737666556580    3.75393908088154
H         1.74967646580044    2.93414467290530    3.48300668072714
C         0.12156413320787    0.23740518831354    3.08192054288393
C        -2.00661853186739    0.54256164204946    1.26694158766014
H        -2.82259904716057    0.66179399851189    0.57026259950446
C        -2.23069060571247    0.02153440791428    2.52697042828082
H        -3.22759930260110   -0.27150389637046    2.82325954929479
C        -1.17752441809911   -0.12637038511129    3.41983563481068
H        -1.38819783583073   -0.53639568833188    4.40135576536581
C         3.86697347266849    2.89246776016537    3.13431596727933
C         5.10150166994794    3.45291361914552    3.42995858980335
H         5.98177259299784    3.06361384063296    2.94379325047519
C         0.31336021215711    0.77450235531829    6.73157498843005
C        -0.72462398442818    0.91047957224768    0.89404623391291
H        -0.51656578314289    1.31447504979434   -0.08466237769890
C         0.31339694853618    0.75485957081880    1.79660253669910
C         3.24770856427916   -1.68587868104054    1.53013249689708
C        -0.28187188888679    0.53781960136958    7.96022799054994
H        -0.61094348834234    1.36915651513516    8.56439969469562
C         3.23439177868672   -2.35789023006809    2.74572336547047
H         3.51686379777811   -1.82341976649503    3.65170930744383
C         0.54045073742823    2.15313037758355    6.20316416181449
H         1.62182576897133    2.30242066459257    6.07928753324365
H         0.15153747662473    2.90754586569494    6.88231181632029
H         0.05212207844046    2.25624875876984    5.22460221514784
C        -0.44553082277184   -0.76595326422184    8.41431855958062
C         2.64461782830849   -3.69984154476664    0.38546457513081
H         2.41433322333858   -4.21883068145066   -0.53261363418226
C         2.94837011275864   -2.35024047072168    0.34962759296530
H         2.96171930516016   -1.80215783710238   -0.57943819213615
C         4.03634240922111    4.95507905161527    4.97020185959996
H         4.10271646229106    5.75669337245434    5.69004353711364
C         1.15466617227918   -2.55001290962451    5.47942601167237
H         0.90614854227403   -2.32717705282029    4.43008856578546
H         0.77585426358478   -3.53357726397558    5.74609309497576
H         2.24400386743023   -2.54809980133836    5.58962685333316
C         5.18068626622720    4.48373802768303    4.34804341949183
H         6.14198167010367    4.91409977036606    4.58413410919931
C         0.60183340815073   -1.48983834622883    6.37479880985370
C         0.01282460236599   -1.78884889727713    7.59467069800011
H        -0.07776037135188   -2.81852616625130    7.90477880243511
C         2.80758272081563    4.39463771118468    4.66968967421221
H         1.91250197473563    4.76623229469992    5.14646106861102
C        -1.10393857918727   -1.05047076726726    9.72465566739344
H        -0.84031091885621   -0.29427577743080   10.46026529610503
H        -0.81761050873996   -2.02961406286203   10.09954232942623
H        -2.18732165697936   -1.03567955819992    9.60190838552922

