38
CSD_code = SIVYIG | q = 0 | S = 0 | Stoichiometry = C19H14ClNO2Ru | MND = 9
Ru       -0.08859080160298    0.77280980682330   -0.26704853630644
Cl       -1.80461422542390    0.79204184273305    1.31445397980220
O        -1.57387156743947    0.61654106220011   -1.68896956337133
N        -0.24455777177451   -1.24535976512705    0.00414294642238
C        -1.10977070147827   -2.05208901283067   -0.59613649371119
O        -1.00255071968945   -3.33155644429150   -0.17991009179113
C         0.43220463318560   -2.02097266126987    0.92095528319533
C        -0.04439227915271   -3.33527422516882    0.78023426796000
C         0.42701316638891   -4.38669123157516    1.54099589969165
H         0.04530255795761   -5.38566609492244    1.41017016307998
C         1.39590256398155   -4.08355185533717    2.48190761806647
H         1.79305572831529   -4.87091786966464    3.10340966332012
C         1.85314527875356   -2.77975769227916    2.65755456616170
H         2.58997185965447   -2.58298295730339    3.42157644605987
C         1.38396934576248   -1.73057961281256    1.89013569064375
H         1.71658543831820   -0.72040114342941    2.05996011420235
C        -2.08885665716203   -1.73201599982981   -1.58171099848510
C        -2.26065642548395   -0.39808511797995   -2.05895739556684
C        -3.25824061486795   -0.19494148871422   -3.04956498606701
H        -3.38796351957127    0.81407196890218   -3.40974473596624
C        -4.03157451918002   -1.22176170825331   -3.51451269454459
H        -4.78788953369056   -1.02459098199492   -4.26053555975122
C        -3.85912576623422   -2.52347284950947   -3.03211608876505
H        -4.47732784294104   -3.32519614872371   -3.40413419034800
C        -2.90391436947812   -2.76571941473649   -2.08261684903839
H        -2.75756702841959   -3.76166891002047   -1.69377138234774
C         2.21022559953102    0.91912172544655   -0.14969543950025
H         2.98719896653657    0.19402084594770    0.07157257401345
C         1.70329118886497    1.73811453315486    0.87552138210530
H         2.07762962409086    1.65709971303548    1.88913759481142
C         0.71918811764438    2.70512099117947    0.56195912425070
H         0.32633252286929    3.34191982227146    1.34798469685211
C         0.34571965256734    2.93576959203335   -0.77669348077000
H        -0.33246513811321    3.74354031164612   -1.02323329282923
C         0.90571227907232    2.14192810223906   -1.80126587738445
H         0.64754940498150    2.34346197852375   -2.83484964068620
C         1.83240796562588    1.13171212225214   -1.49969959774476
H         2.30512358759109    0.56427876738278   -2.29160511566653

