34
CSD_code = SIWCAD | q = 0 | S = 0 | Stoichiometry = C12H16ClNO3Pd | MND = 4
Pd        0.40462945267900    0.91020187807292    3.59877336838141
Cl       -1.06785338841963   -0.54336786706452    2.85017453685451
N         1.70966145837646    2.23744280423813    4.36066093229232
O        -1.36086824899527    2.00304377350271    4.55792439414322
H        -2.12873079391554    1.47295957191429    4.81286630461210
O         5.77971139133362   -0.95466698561578    1.29576768430219
O         3.70450649074133   -2.34459397141511    0.66448248395406
C         2.04257834449654    0.16831009147979    2.78440749464342
C         2.20380342135116   -0.93396899340238    1.95713872553587
H         1.33741228222624   -1.52291605027715    1.69223792724830
C         3.45895654028354   -1.28752466924202    1.47291635499632
C         4.59900098801861   -0.51712541953868    1.82348236003663
C         4.45011806733295    0.57986617457777    2.64203372902389
H         5.29858612712138    1.18416011912717    2.92370893032603
C         3.17979274427704    0.92970361496205    3.12600639186834
C         2.92751895084322    2.04444438875405    3.98460130386425
H         3.73346847851133    2.70271526276708    4.31578966992375
C         1.36220781872062    3.31856889013659    5.24627577145532
H         2.13900115357339    4.09710502779661    5.21399398599787
H         1.31584293226717    2.93261263979401    6.27496398474905
C         0.00600347046936    3.94226458843435    4.87900475850249
H        -0.04567734084082    4.94648375226039    5.30120088701558
H        -0.06352662008021    4.01632053084939    3.78734576273626
C        -1.20382476462584    3.14679227496972    5.37451057634868
H        -1.06615475108650    2.85841880981541    6.42721216351476
H        -2.10351634818741    3.77431042368518    5.29626633962477
C         2.62299574453934   -3.15697087061661    0.27092863076051
H         2.13744517700648   -3.62428330871604    1.13285439016149
H         3.05452385154391   -3.92855414429292   -0.36474675039582
H         1.88089889392527   -2.58906901189955   -0.29836994166584
C         6.94954556792793   -0.24730098400836    1.61551504669730
H         6.90627725363838    0.78813769050551    1.26011830942213
H         7.75723893686697   -0.76847476356489    1.10398174243218
H         7.14242671807913   -0.25214526798896    2.69397175063458

