57
CSD_code = SIWDIN | q = 1 | S = 0 | Stoichiometry = C24H24CoN6S2(1+) | MND = 6
Co       -0.91967639838843    9.62567360520798    2.87021977754058
S        -2.38433940814733    7.95571268536157    2.17463184326272
N        -0.30756462284328    9.68998108928206    1.08394328220496
C        -1.77944719469793    7.91724805135456    0.49042958574386
C        -2.29841950797094    6.99401936324786   -0.39810987363271
H        -3.05087793013335    6.29539285280438   -0.06696244138409
C        -1.84153801171395    6.97323001051848   -1.70432569836857
H        -2.24344650220690    6.25848851084324   -2.40414713984508
C         0.90712596547014   11.38351841443117    2.01054904492998
C         1.75596485682377   12.43946428615560    2.38173755964124
H         2.38201250881203   13.02987570238235    1.74598280206879
C         0.52926676129832   10.66428206444952    0.86664523216773
H         0.91745127166564   10.90849466306151   -0.11375695878801
C        -0.78487133888149    8.82512105997490    0.11054092817828
C        -0.33014345536859    8.78086614603810   -1.21120474401100
H         0.44175747152662    9.45544882919243   -1.54455276854955
C        -0.85976998380179    7.86845806785247   -2.10237829572016
H        -0.49851572247594    7.85183225579024   -3.11873488814482
C        -4.04559546486492    8.63010043906836    1.85397060883307
H        -4.62055979812037    7.87529410223797    1.32598611031617
H        -3.96883247361104    9.53720739955368    1.26207907480523
H        -4.50218854515367    8.83680131557221    2.81689136062013
N         0.31865903550824   10.93914643224558    3.15919907967541
N         0.70957659400401   11.61822878606806    4.18966052306238
C         1.59503482736500   12.54444192566248    3.75847426285664
C         2.25648906197251   13.47304489122032    4.70805625566639
H         1.57428083281019   13.72759198338460    5.51450465742354
H         2.56848686851528   14.37731962238736    4.19322630880678
H         3.13762800195543   13.00467140760468    5.14629677091120
S         0.54429899839693    7.95459319806399    3.56560035293049
N        -1.53248343813431    9.68955214089251    4.65624411612863
C        -0.06036176068679    7.91713420590076    5.24984969676677
C         0.45877180753350    6.99412303240692    6.13851286285140
H         1.21101389411817    6.29529953078111    5.80732517051833
C         0.00175773460296    6.97333747595449    7.44465629399419
H         0.40354235847461    6.25853315285335    8.14446746120849
C        -2.74702758745918   11.38313007004404    3.72963797891475
C        -3.59570511041253   12.43920110126938    3.35846612664775
H        -4.22168797144736   13.02974931409458    3.99419184351225
C        -2.36932292567755   10.66389970142562    4.87356625140413
H        -2.75723157677605   10.90841344277666    5.85398443233252
C        -1.05508040597843    8.82485380458665    5.62964465789549
C        -1.50978662324669    8.78079230390434    6.95139198661456
H        -2.28165157315615    9.45542534951755    7.28470515238365
C        -0.98008078486341    7.86850774808923    7.84264070040220
H        -1.34137924105947    7.85192566667414    8.85896686540467
C         2.20523091097555    8.62992892826886    3.88618662770750
H         2.78044982109244    7.87536335955338    4.41418128459180
H         2.12849720824910    9.53714517037593    4.47800267691844
H         2.66181685779246    8.83663095775462    2.92328048041143
N        -2.15843704959437   10.93873148370425    2.58108954178576
N        -2.54938058237686   11.61776631645921    1.55059353636111
C        -3.43473927976013   12.54413148207871    1.98173008513697
C        -4.09616715411979   13.47285206424236    1.03224688252072
H        -3.41396951341864   13.72776216669720    0.22596728326422
H        -4.40850495138804   14.37701099613843    1.54702038002601
H        -4.97712976101405   13.00454987252822    0.59369701109564

