26
CSD_code = SIWDUY | q = 0 | S = 0 | Stoichiometry = C10H12ClNOPd | MND = 4
Pd        6.21121232530065    5.81436373851392   -0.01227505622750
Cl        7.48846036181675    6.62321654589833   -1.60335782918522
O         8.08536583884679    5.84608734301947    1.31215276377686
H         8.79285354932908    6.47336227697001    1.11118821613032
N         5.09784169018791    5.12991733590184    1.50583015109357
C         4.50737120576215    5.64083333838101   -0.99685927261246
C         4.20171095712245    5.92652394279943   -2.31996323505900
H         4.96277509046076    6.32058320125590   -2.98108473837243
C         2.91755443546776    5.71147366102336   -2.80410417378918
H         2.69303258270082    5.94000013632021   -3.83612922401011
C         1.91872833893660    5.20808186220722   -1.98116021173241
H         0.92596244065775    5.04683821960814   -2.37516551755094
C         2.19489820437063    4.91534827907416   -0.66137410892704
H         1.42482829777511    4.52398507486173   -0.01105223864784
C         3.48222087627643    5.12937073298371   -0.16402803717012
C         3.87772556532030    4.86985322928994    1.19210794692167
H         3.17070045024722    4.47716269355114    1.92560243616687
C         5.58165064017629    4.92798922806592    2.84787396090409
H         4.91747892896440    4.23655167843315    3.38750563877254
H         5.56377935860633    5.89239157120631    3.37507766252690
C         7.01424428345799    4.36993434534131    2.86013654726222
H         7.18993914664805    3.87059907428058    3.81351496349303
H         7.11183776710780    3.63265442517458    2.05440169694031
C         8.09990694096567    5.43019549006588    2.66253379100772
H         7.92609889355110    6.28443758783794    3.33404479998353
H         9.07852182994331    4.98934498793480    2.89998306830410

