50
CSD_code = SIWGIO | q = 0 | S = 0 | Stoichiometry = C18H28BrP2Y | MND = 13
Br        1.23136352444110   -0.20818982198562    4.85961282072724
Y         1.91862930682633    2.31889440451391    5.26193029555754
P         2.13505079070209    2.05579030376845    2.46534811669997
P         1.38070902561963    1.39991705277037    7.87013985665002
C         4.86691173058709    1.69327000138203    2.94693685107196
H         5.71307370542731    1.00147107405589    2.90552380690364
H         5.15286022814573    2.60036024958659    2.40570275947437
C         3.66296031350160    1.03927774472769    2.25043102436508
H         3.45997384026298    0.06230656336303    2.70340088658245
H         3.85715371924086    0.89273135402292    1.18200168144132
C        -1.12534132358758    2.59370993994766    7.52100857933117
H        -2.20287557203403    2.43287514104182    7.42435635576831
H        -0.96882964443835    3.32045323908843    8.32401691121629
C        -0.46145591298093    1.26038332020312    7.90031881313523
H        -0.73280158440298    0.49114751605497    7.16854524742917
H        -0.78663137596899    0.92594744710278    8.89185354188979
C         0.95999287478147    1.05804728530637    1.47036682157273
H         0.00685498375629    1.58092217482395    1.40243539823554
H         0.79777479027398    0.09880234501955    1.96006838132357
H         1.36240798674412    0.90020578945192    0.46923158698089
C         2.46324936976470    3.43884708906327    1.29586739914163
H         1.55745503131763    4.03336745474430    1.18422825826227
H         2.76336980600201    3.04742228309857    0.32352734707962
H         3.25122053860161    4.07919217068781    1.68863764127051
C         1.82547241012137   -0.28665200134928    8.43926354109866
H         2.90300954716123   -0.34776313805135    8.58616766112509
H         1.53495060553760   -1.01110960720170    7.67968367416030
H         1.31565832445791   -0.50821554109429    9.37741923490733
C         1.68768925294790    2.35773943982639    9.41174252415931
H         1.35044977104979    3.38502355771018    9.28474418402872
H         2.75719049725870    2.36748987181593    9.61785000164549
H         1.15995321151697    1.90263677149218   10.25027185331974
C         4.65920414475686    1.17949496571347    5.48429555584659
H         4.95291543339719    0.14158009955149    5.45000547103881
C         4.36987075537896    1.91271259379080    6.64432500131744
H         4.46017108042179    1.54873974891695    7.65882997149109
C         4.07015243641486    3.23982666120060    6.27118351050259
H         3.98004170228186    4.08324792182415    6.94591992037892
C         4.18555286658208    3.32183537851320    4.85408131666986
H         4.22870975585214    4.24226800217248    4.28133188745874
C         4.57017684110090    2.04039227239373    4.37817207879157
C         0.59630540236685    4.43447532964406    4.74182803293365
H         1.14545780067320    5.27707690967584    4.33794350496345
C        -0.28880433330129    3.60451047883604    4.02187785735540
H        -0.46543362323945    3.64715402190447    2.95561000950614
C        -0.99514657373491    2.80934184313375    4.93608401039137
H        -1.76520088868244    2.09479629338919    4.68861496132555
C        -0.58188285966983    3.14840724308386    6.23494481428106
C         0.42224191899818    4.14635240863240    6.12535594732336
H         0.79451836775069    4.75388635259269    6.94346309181404

