71
CSD_code = SIWJEN | q = 0 | S = 0 | Stoichiometry = C36H30MoN4 | MND = 4
Mo        2.15596604280172    7.45407326891152    3.41903676437417
N         2.60308846407382    6.08982028921684    2.48319866794777
N         3.20674934025345    7.23167015294815    5.04538324945002
N         2.72872340038002    8.92607818900352    2.26081284538547
N         0.21750263648355    7.22411440525577    3.59037409592044
C         3.33497833048699    8.37688592771969    5.83649538739505
C         3.80692208828276    9.56436322379127    5.26910054364077
C         3.83623360622220   10.73389463716027    6.00600398494794
C         3.42809118674740   10.73497644472510    7.32898777575375
C         3.02329783438012    9.54841984303167    7.92113518446355
C         2.98047158510372    8.37790472586831    7.19141065394035
C         3.70726757758632    6.03876440374354    5.57269919103828
C         3.04476511375953    4.83568513131193    5.31430166542761
C         3.54843744552150    3.64680454439527    5.80571014041056
C         4.69936156753686    3.63555049228860    6.57819321721512
C         5.35548149611068    4.82542678413329    6.84634678767473
C         4.86956085131211    6.01909563057411    6.34934646489082
C         3.76084309596543    8.81215931901687    1.32254125026093
C         3.69894862671173    9.47541261660361    0.09420731127738
C         4.71905268558405    9.33249312525570   -0.82599797007403
C         5.81179478318897    8.53030828805573   -0.54088756712220
C         5.88042663209446    7.87049377918750    0.67582229828981
C         4.87186790352723    8.01602656893696    1.60942766333829
C         2.20300175523951   10.20065272038715    2.46346548855546
C         0.83010171874853   10.36309924720760    2.67285504830566
C         0.30549989222418   11.60301449858660    2.98452481263879
C         1.13148370379560   12.71121291988809    3.06714496381680
C         2.48632408234971   12.57259461528017    2.80845979100673
C         3.02213930124583   11.33700025788094    2.50796604965815
C        -0.40770453136808    7.75829275996242    4.71875598605793
C         0.07675926719376    7.44377627798942    5.99214239431484
C        -0.47435859373912    8.02833355967734    7.11740211640051
C        -1.52952617494713    8.91683071542142    6.99777819593900
C        -2.05103700113671    9.19569209706195    5.74384187438742
C        -1.50556202271538    8.62184684817286    4.61358240490150
C        -0.60465933964338    6.66264167778767    2.61290223262027
C        -0.24329055044472    6.77025120989498    1.26627907487649
C        -1.02860765003688    6.19164096436578    0.28792253372962
C        -2.19384205111356    5.52154587422132    0.62610807460736
C        -2.56461993583388    5.42189304302220    1.95701019922202
C        -1.78072354505061    5.98328284691454    2.94579427375541
H         4.20675701425034    9.54191772188127    4.25830646998847
H         4.19161744553522   11.64417680657985    5.54570915271956
H         3.44771897891433   11.64876131107471    7.90270306747408
H         2.73561167461565    9.53631339810151    8.96213870431481
H         2.67536125496101    7.45170985567806    7.65928168394614
H         2.14197680375330    4.85395636934292    4.70588549411459
H         3.03268503955092    2.72244429103730    5.59284385872572
H         5.08318169082309    2.70512878996768    6.96814282608789
H         6.25675627543135    4.82536113283482    7.44190408721996
H         5.39120398974590    6.94642494339927    6.54769052671963
H         2.83862589242039   10.09219103581986   -0.13136049568295
H         4.65674290982595    9.84641417673076   -1.77406359687428
H         6.60606904660202    8.42035084821647   -1.26349222940278
H         6.73092122719343    7.24554521732371    0.90350985987106
H         4.92112672745994    7.50627094610806    2.57133985735972
H         0.17179236528984    9.51045774214590    2.53244330730235
H        -0.75706344557808   11.70500446279639    3.15114674907954
H         0.72098066190393   13.67861175179784    3.31239708824985
H         3.13373553260268   13.43656409950732    2.84656397680753
H         4.08099726981700   11.23426315750529    2.30919102451112
H         0.85484980812659    6.68781732072296    6.08289660930371
H        -0.08853374458560    7.77669435281715    8.09444127429508
H        -1.95738545050575    9.37351693866766    7.87697862827135
H        -2.89083269068217    9.86799870917781    5.64620135173649
H        -1.92331581575955    8.83259305657766    3.63786154553593
H         0.66974456008735    7.30669382564145    1.00575431605404
H        -0.73470198040195    6.27365489731365   -0.74786465242630
H        -2.80904126130229    5.07944651314381   -0.14271041031146
H        -3.46820595634591    4.89640772396040    2.22972168017441
H        -2.06358644266413    5.89038467932708    3.98615312411014

