123
CSD_code = SIWJUE | q = 1 | S = 0 | Stoichiometry = C61H53O2P4RuS2(1+) | MND = 6
Ru       19.03777168239350    4.04189064338175    7.19242238208163
S        18.31953924748422    0.22526613308440    4.04292525520209
S        18.75325888361191   -1.54947907395191    0.05600140915481
P        21.06163357801114    2.97464943478116    7.52041526631073
P        20.17931880469690    5.94019399720833    7.85647917551399
P        16.98611202246969    4.75286707554632    6.39456050846909
P        17.96606566923729    3.96471887410982    9.23998188378109
O        18.54508007549721    2.19526743488467    6.23247901599387
O        19.48801980504366    3.80286087342688    5.11226957289038
C        21.70639421474471    2.09830603758184    6.05611994531516
C        21.38771641093535    0.74944450375368    5.90224222160019
C        21.75748865751496    0.06907473494595    4.75659233941231
C        22.43756711409931    0.72743540888007    3.74610283103017
C        22.75077292758877    2.06914388512051    3.88927809059615
C        22.38489762705889    2.75560015002610    5.03275110398684
C        21.23569870966088    1.67107720313352    8.77698777900347
C        22.43761255904612    1.33442953066816    9.38931089796007
C        22.46972041196219    0.31016109986176   10.31946380480058
C        21.31624630592531   -0.39052083509192   10.63494480931366
C        20.12203464483436   -0.07826547099069   10.00557888299948
C        20.08505598308672    0.94675779377125    9.07889203332733
C        22.33698520210093    4.24598820148961    7.93034248878688
C        21.66986844228744    5.32549494666745    8.77349297070866
C        19.52309303643992    7.22948985333678    8.96410267617626
C        18.42114034974299    7.94653866196569    8.49959951043778
C        17.87951878871390    8.97186807667097    9.25180771017084
C        18.43541107081719    9.29469468553694   10.47984087838566
C        19.52923246827035    8.58652120783874   10.94742422734022
C        20.07249226348375    7.55548599726251   10.19946336660528
C        21.04824978726772    6.95025742200045    6.60770443369024
C        21.27838021265178    6.41594026279211    5.34300290880933
C        22.00399932171937    7.13308739098235    4.40796566626301
C        22.49968106964721    8.38625563902949    4.72808199193033
C        22.26912341913792    8.92227797446789    5.98533979744481
C        21.54901817038690    8.20935117613116    6.92659540241538
C        16.71953100265903    6.35328712830372    5.57092489998969
C        17.81909530157330    7.11342142018690    5.19428173045994
C        17.64496385521824    8.31415923843271    4.52878635232564
C        16.36646533505255    8.75512940710500    4.23156849116764
C        15.26621649637419    7.98725911806209    4.58420555437963
C        15.43696031457493    6.78557549604117    5.24554362259728
C        16.27757964193618    3.66767822798759    5.11014180340612
C        15.48584949838763    2.55520429685480    5.37759207212660
C        15.07868721681658    1.72896759937428    4.34492443817712
C        15.46044012466977    1.99484614068534    3.04064711042941
C        16.25134678781938    3.09849010632676    2.76683963802618
C        16.66239648603786    3.92681642390827    3.79405028342394
C        15.76156180572661    4.75009548406462    7.78325078929531
C        16.49514023303569    5.08158348660356    9.07681590094053
C        17.09304772135862    2.43837418534109    9.72672981693768
C        16.72480449390818    2.20043274449279   11.04758749292396
C        15.99851519786514    1.06706977636251   11.36630271532723
C        15.62975835948941    0.17025612109884   10.37619666358656
C        15.99064049342866    0.40594892081441    9.05966589353488
C        16.72058476614751    1.53545132121936    8.73469761097469
C        18.69568691401095    4.48495039653350   10.82513922523716
C        18.23451648390063    5.54648004627102   11.59565712334841
C        18.83864976650656    5.83269670521371   12.80867423234176
C        19.90563332035664    5.07503397173050   13.26024196015993
C        20.37200283386783    4.01656777130857   12.49588335801420
C        19.76887780413865    3.72380991889446   11.28762836960010
C        19.01578608558467    2.63433085780944    5.14793271943770
C        19.01501300057271    1.80491880831027    3.96608265519658
C        19.51314912740568    2.09083118903893    2.72011345604738
C        19.33519970977704    1.04167027849146    1.81752191414876
C        18.70103332075970   -0.04925816426248    2.37119039484841
C        18.36203466854495   -1.27654959849549    1.73151516002145
C        17.72225493669760   -2.36779228691138    2.26638949905260
C        17.54836351140482   -3.41095494308335    1.34174828756728
C        18.05273367801002   -3.11280757783218    0.11348456453598
H        20.84218994562478    0.23223216842686    6.68001406534523
H        21.50455523367183   -0.97536269760046    4.65036918967168
H        22.71864628701766    0.19836603857584    2.84831530506201
H        23.27934723490772    2.58688757687041    3.10260658319162
H        22.62455872183324    3.80599065850913    5.11454285633025
H        23.35104218425444    1.85544410540897    9.14277606714581
H        23.40318585661717    0.05474210622180   10.79819780770609
H        21.35191086924924   -1.18493740646048   11.36462198535083
H        19.22115398960208   -0.62736320044500   10.23587520376546
H        19.16275021503800    1.19941664709813    8.57311053349093
H        23.18609715787257    3.79918195193884    8.45122380594732
H        22.69856641640536    4.68665948311605    6.99615894348136
H        22.35495253872926    6.16043794402944    8.95442324151995
H        21.33374348839797    4.90734297932534    9.72887788909713
H        18.00094431581253    7.69818068542228    7.53345191546502
H        17.02841395299285    9.52190849931794    8.87852654197135
H        18.01901807403038   10.09824668909819   11.06775732206270
H        19.96770474412153    8.83825399734964   11.90131038077454
H        20.92128786435720    7.01517050758282   10.58803606615184
H        20.86828302348357    5.44733159274174    5.08881278018150
H        22.17929661266772    6.71565794195190    3.42731769643159
H        23.06241077480168    8.94747018708773    3.99768739481759
H        22.65273545043575    9.90033175223004    6.23393777927807
H        21.36954405083700    8.63075843806658    7.90551874312417
H        18.81154550697557    6.74743514567963    5.42331126179848
H        18.50658144518869    8.89957277267283    4.24386663843593
H        16.22447190307742    9.69207620438700    3.71500621425778
H        14.27130569273999    8.32516385885813    4.33599037811061
H        14.57763732709949    6.17784769121343    5.49421233653367
H        15.18089545855400    2.31957308388654    6.38667511335803
H        14.46414756924124    0.86829359118064    4.56271131999854
H        15.14697986130433    1.34132297407473    2.24075606927918
H        16.55633082858373    3.30978563183981    1.75278617516332
H        14.96537620446138    5.47208414962278    7.58657977883936
H        15.31958754504743    3.75277019472733    7.86173603070919
H        15.84131206702712    4.94618032173281    9.94501928417796
H        16.86182888244003    6.11334695334660    9.04862442218197
H        17.00923339115166    2.89652222415198   11.82347489540884
H        15.71837288251795    0.88343733015798   12.39265851144677
H        15.06404674100522   -0.71281715685555   10.63197769049062
H        15.70838540860382   -0.29256240993212    8.28561321634990
H        17.02453537450345    1.70788560166383    7.71032588488732
H        17.40724692262691    6.15390687814475   11.26399076590075
H        18.46864240296676    6.65309473389860   13.40494264888939
H        20.36971001673444    5.30401700655706   14.20732468829824
H        21.19983887203993    3.41671210028563   12.84385716756973
H        20.11242453232108    2.88834411433137   10.69212011046404
H        19.98280593912065    3.02909757967912    2.48665003914460
H        19.65325400626173    1.06590071337174    0.79059732538117
H        17.39500263666358   -2.40314652067796    3.29026617929765
H        17.06959243875313   -4.34435715085543    1.57563343209186
H        18.05600626181634   -3.72081395293044   -0.76905868636718
H        17.29204364722137    4.78127274330254    3.58006197305216

