75
CSD_code = SIWKIU | q = 0 | S = 0 | Stoichiometry = C36H34O2P2Ru | MND = 8
Ru        2.30732565393436    3.98798750777310    7.08807782820532
C         3.97926556296975    3.24388399643739    7.87711323410050
P         1.93273677471723    4.23087933676288    9.28503027585165
C         0.40099421622522    5.02559699425653    9.88550498216805
C         0.07506755934677    5.04185148201804   11.23830184919677
C        -1.06599535406751    5.69582462489326   11.66385569168986
C        -1.88499143144711    6.33803296285253   10.74725369585254
C        -1.56352272657136    6.32545329485589    9.40020652721139
C        -0.42347359095960    5.66860929065755    8.97202035299664
C         2.02762959526542    2.78407450963240   10.37308021270833
C         0.91694868612041    1.94198709262406   10.36335434285592
C         0.92422449165143    0.76519202656208   11.08540032621432
C         2.04873621593405    0.41487259412311   11.81651124803369
C         3.15947648796161    1.24173946912936   11.81791396642097
C         3.15834695584691    2.42299643382884   11.09619817469852
C         3.18440784531774    5.42602653322708    9.94114393586976
C         3.14966523897954    6.64943036411305    9.03008462473997
P         3.16499407400625    6.05688238909135    7.26116942940923
C         2.28482569102855    7.35297112028621    6.32614266558815
C         1.18924961302480    8.05861388469544    6.81161889294641
C         0.49405308829640    8.92231375570530    5.98320187943217
C         0.87145766527580    9.07988021136971    4.66038012849047
C         1.95028986179862    8.36582457297004    4.16281692578665
C         2.64790571943232    7.50573172069361    4.98813857664128
C         4.88074773408060    6.44447348494183    6.77100161356555
C         5.69435687893951    5.43983319806318    6.26580505883722
C         6.99480886621355    5.72578065696189    5.88707748731507
C         7.48153615730526    7.01667013634698    6.00324212693712
C         6.66632017011743    8.02646227972241    6.49298093274353
C         5.36891985128767    7.74491882746279    6.87475641207913
C         4.94992380418316    2.69149813315124    8.35862164136672
C         6.09897037807530    2.08671728020044    8.93540146907878
O         6.68656742043615    1.11167621371146    8.52837642352998
C         7.61378341292226    2.28558764157256   10.74476090770453
O         6.47916677599283    2.77943577541393   10.04867898671399
C         7.21661929350335    1.27105001968902   11.80939142040408
C         1.29002466133288    2.16785965438154    6.32797746711421
C         0.33980576305472    3.23171519658947    6.33991547882637
C         0.78842607995954    4.23705075380819    5.46150657762436
C         2.01834394639485    3.79301113097346    4.88047003427272
C         2.30521626688655    2.50985402571034    5.39551151983797
H         0.71504670323644    4.53403439322685   11.94754543911757
H        -1.32069507224005    5.70630569962166   12.71373804429487
H        -2.77601603203309    6.84655421991938   11.08518626504935
H        -2.20198453824889    6.82501846550231    8.68551756802916
H        -0.15494536185827    5.64632998821868    7.92193453371247
H         0.04802753718799    2.22756914429248    9.78150535285544
H         0.05970733550187    0.11700119973073   11.07654248824477
H         2.06043913797597   -0.50711689620803   12.37917017359992
H         4.03665007935134    0.95942038420759   12.38144616787655
H         4.03541896000095    3.05143621646092   11.08543609937928
H         2.96736129320441    5.68618313829599   10.98243207529783
H         4.16059265780781    4.93441833964784    9.86860305561624
H         4.00222889957410    7.30982080309989    9.21311050100497
H         2.22425217235234    7.20653857457331    9.20440386699997
H         0.86842674229251    7.93843586231280    7.83648527207826
H        -0.35081124055270    9.47221700378645    6.37271039337047
H         0.32336844268193    9.75228725965290    4.01704582785190
H         2.24372274408031    8.47907372522305    3.12917137802279
H         3.49029549106091    6.94309871743652    4.60563367755421
H         5.29769173183227    4.43521282695333    6.18826214357784
H         7.62783605053725    4.94029639211288    5.50163985440057
H         8.49629989242597    7.24119324923129    5.70867011368361
H         7.04548241053201    9.03512939489786    6.57413230146268
H         4.72367405759936    8.53249643328030    7.24308767582760
H         8.08737014859388    3.16187659075740   11.19591497828507
H         8.29925303819928    1.82324597354800   10.02563939834569
H         8.10235866431802    0.92312297032596   12.33413873145942
H         6.72656948443155    0.42075488715992   11.34040284773653
H         6.53390254167309    1.72438748547160   12.52496772101740
H         1.15462741062462    1.19550582850824    6.78466081028225
H        -0.61928075111529    3.20794848999042    6.84327121534725
H         0.22929274640761    5.10900993980388    5.14332224014230
H         2.52941028444745    4.27587913197436    4.05635722151563
H         3.11157098344507    1.86186358980148    5.07671924187995

