59
CSD_code = SIWPAR | q = 0 | S = 0 | Stoichiometry = C27H24N4O2SZn | MND = 5
Zn        7.96799891485987    2.73284922079258   10.46727344093924
S        11.40739457688283    5.52274464792672   10.20097683265560
O         9.21155027465714    2.28994854898252   12.11098539002517
O         6.80735116330492    3.70685040767871   11.63273438295710
N         6.38992082309720    1.76479502176388    9.76296776131233
N         9.10780109892691    4.06129599697036    9.78842827674328
N         8.94495348653298    1.14634749370991    9.44729182203116
N        10.73560340173494    3.61166349086792   13.13220060401555
C        11.87171266351357    2.86833276459068   12.63894682734657
H        11.51963833773273    1.90922382880779   12.26560869364471
H        12.58594180195254    2.70904596169492   13.44715661271864
H        12.35919921802823    3.42212312755314   11.83233263562768
C        11.03857921753922    4.85060710791319   13.80048587768052
H        10.12147833546075    5.32246144995641   14.14493046590444
H        11.54487277475481    5.52742348052070   13.10695781004955
H        11.69249336216425    4.66448695420173   14.65439805757319
C         9.50207754024054    3.27438174616400   12.79188039324877
H         8.72861705134441    3.94168759422956   13.19104528910407
C        10.24140013082793    0.87596464892713    9.44212186073549
H        10.86810824394375    1.58725500586182    9.95793679338582
C        10.76759920271614   -0.23452411722587    8.80873184121562
H        11.82917290757092   -0.42241989820458    8.82517932755214
C         8.54745976925054   -0.79950814613720    8.14674093278977
H         7.83906818790155   -1.43369025822137    7.63609731403063
C         8.10814417896834    0.34212196216924    8.81148121022732
C         6.66097420005121    0.75332551991060    8.77003325635925
H         6.02842329450296   -0.13464564725697    8.93007207052595
C         9.89747674273291   -1.09447497605698    8.15210091767160
H        10.26809073517356   -1.97532169079918    7.64915313786879
C         6.39216403167895    1.29697852703560    7.37358688364554
C         6.99462202234244    2.48075810659573    6.96756876615169
H         7.65016372323858    3.00745519599614    7.64619513232326
C         6.74612368697354    2.98640724883122    5.70466510931238
H         7.21503511606678    3.90888880136375    5.39740678787161
C         5.90081023382136    2.31364853684610    4.83731344604808
H         5.70824810672421    2.70981806164339    3.85142402809784
C         5.30054839114079    1.13328776552032    5.23866919991777
H         4.63755293917324    0.60582565828231    4.56870948059788
C         5.54518296306530    0.62599792407913    6.50360212007306
H         5.06983050649456   -0.29486900180801    6.81337569501847
C         5.15097154429903    1.93681418546091   10.10281259871549
H         4.42321813019097    1.27379770973485    9.62983325776137
C         4.64885854511257    2.86544781205238   11.03608930876306
C         5.54390968111895    3.68998951224949   11.78081928205893
C         4.98806585616253    4.54957611806816   12.79040056558758
H         5.68943950848327    5.15565833533956   13.34512706532169
C         3.66191388326594    4.60068641396330   13.03636419460119
H         3.26890981939134    5.25118994930773   13.80623630664719
C         3.22694132856758    2.95719170518062   11.27114647932283
C         2.74187305489950    3.81832646310331   12.28705833929098
C         1.36570974093377    3.91212398462462   12.54479356940137
H         1.03275424635323    4.57524967105572   13.33100644288441
C         0.45850398516268    3.18777759808975   11.81654746046813
H        -0.59956752308821    3.26297397795445   12.01827208273039
C         2.26327435034228    2.24669847642362   10.53164770397939
H         2.56005811296487    1.60223754588632    9.71891073771275
C         0.92026577148206    2.35585009454877   10.79710592499919
H         0.21201727334970    1.79349941917861   10.20539004568463
C        10.08229933393347    4.69276295609848    9.97967214908827

