67
CSD_code = SIWQIZ | q = 0 | S = 0 | Stoichiometry = C35H16F9IrN6 | MND = 6
Ir        4.75231397900191   -6.84484106481867   50.76972066472788
N         6.65360530983040   -6.54800446618181   51.88390582567944
C         7.47741266663650   -5.50671396420581   51.88368661213275
H         7.20170324825599   -4.68391247181584   51.23763534354833
C         8.62775870549071   -5.45838645832272   52.64874774882572
H         9.26406813686926   -4.58898884316560   52.61220544100831
C         8.94235445736606   -6.54778295075472   53.45521632260809
H         9.83556719348571   -6.54094259856366   54.06139071288177
C         8.09402281401299   -7.63469151614878   53.46512001790722
H         8.27561165535479   -8.51274068993637   54.06309338742815
C         6.95036572175048   -7.60106224048235   52.66534882027428
C         6.01506882865022   -8.69054469143442   52.62512974321686
N         4.89508996836726   -8.60647518201033   51.87064965031725
N         4.22316509028272   -9.72246310587990   52.02799182975803
C         4.95066963676050  -10.46746791859073   52.87482408525706
N         6.08038610141706   -9.85355490537211   53.26996758518926
C         4.55473525273777  -11.78927131540770   53.31600333325387
C         5.48214460350241  -12.67930741840144   53.86634129540715
F         6.76639073642905  -12.33677937398636   53.97855039822506
C         5.10727189480348  -13.94697513614332   54.29398427123948
F         6.01875265506184  -14.77740680802926   54.81334891917646
C         3.78366459318619  -14.35849692999942   54.18011527158070
F         3.41834178919222  -15.57620632806178   54.59053505105221
C         2.84423155877463  -13.48877069809381   53.63603627845890
F         1.56778240917286  -13.87332607018991   53.52939775486192
C         3.22942423102989  -12.22307589750096   53.21183817648161
F         2.28944797936874  -11.41445895089896   52.72085632349131
N         3.87656765705974   -5.75753336606598   52.22107809915867
C         3.35406838701280   -6.27977644249440   53.32853519041479
H         3.36010495442289   -7.35783316978380   53.40500503563877
C         2.80689018571936   -5.51124871894737   54.33775256153876
H         2.39516699439425   -5.98389933889485   55.21433946127307
C         2.79823739820095   -4.13232665964291   54.18683694260760
H         2.38207080772878   -3.49581902171331   54.95227668074062
C         3.31960365073376   -3.58275971087022   53.03113942932514
H         3.30359005477438   -2.51584963716298   52.89508458920253
C         3.85389555891314   -4.41367625177848   52.04577137099493
C         4.39245291654434   -3.97779349336061   50.76147272918334
C         4.51783356441666   -2.65567315616420   50.33338958292236
F         4.17199803594511   -1.62397912608609   51.13642140334106
C         5.01346429426693   -2.32787923872163   49.08817572739647
H         5.10063417296191   -1.29917878735615   48.78086268910577
C         5.38675265867180   -3.36712975370181   48.25471289751726
F         5.87199380396015   -3.06991435705746   47.03345037453052
C         5.29028009946569   -4.69059042244610   48.64020018465843
H         5.60075961085948   -5.45230980777939   47.94113378756796
C         4.79706546347250   -5.02770165859687   49.89672452173998
N         5.53772684255626   -7.90962509156612   49.24919896342736
C         6.84273564946601   -8.08881607410188   49.05554991732674
H         7.51066213566661   -7.52835498195541   49.69586124609258
C         7.35617611130830   -8.93383434829208   48.09202049411490
H         8.42264004951589   -9.04236903029842   47.97941394719659
C         6.46730553735299   -9.63325517426471   47.28787767595153
H         6.82666645869192  -10.31142169015146   46.52955602479069
C         5.11168408945947   -9.44463723425556   47.47102423694533
H         4.41142570302397   -9.97780835493209   46.85289282558874
C         4.65592095695304   -8.56958122546032   48.45891475177169
C         3.26180790593634   -8.26410535153142   48.74884118556862
C         2.15129843025251   -8.77668254025811   48.07553614991163
F         2.29719591823558   -9.64122945492494   47.04869557420647
C         0.85998123324102   -8.42845616704961   48.41145405926450
H         0.01955964818909   -8.84042836335459   47.87818182227264
C         0.68849761411303   -7.53774060543349   49.45550999134997
F        -0.56197182693622   -7.17563236075850   49.79557800459906
C         1.75614828110501   -7.00349058161542   50.15200231660938
H         1.54771066648150   -6.31196670906496   50.95364819230283
C         3.05634710906263   -7.35694454771534   49.81623849785709

