58
CSD_code = SIWQAQ | q = 0 | S = 0 | Stoichiometry = C28H24CoN2O2P | MND = 4
Co        6.56156424141758    5.54558869949806   -0.27009433102576
O         7.52925862633775    5.66963799468723   -2.84688998813918
O         7.32853755122439    4.12264870041751    2.18322679760255
C         7.03946272786665    4.68469463451867    1.21955926000461
C         2.95169386626429    8.89725290547792    0.64522751042441
H         2.27227906908361    9.63519816239590    1.06362348446497
H         2.44737260081128    7.93404391527161    0.60518514212472
H         3.22500004533447    9.19676980776845   -0.36424012749192
P         4.74100915404339    4.35500941204721   -0.87494914819700
C         2.20467958616295    5.17134729262290    0.07803735180275
C         1.21600617046886    5.22902656800256    1.04595823753237
C         1.34892604784413    4.51467521030439    2.22428552684823
C         2.48057377767565    3.74261036443459    2.44071416451181
C         3.47612926504875    3.69301430474106    1.48486507377907
C         3.33833314040398    4.39542513589552    0.28871817159890
H         2.09418973390136    5.72271284316272   -0.84587967536189
H         0.33580311812258    5.83308027810148    0.87765221735702
H         0.57468609962317    4.56302995351880    2.97531639288992
H         2.58809563180449    3.18368812087586    3.35885753386499
H         4.37075025029904    3.10744604671451    1.65315905232097
C         3.89555637220496    1.65752148716328   -0.98254889288141
C         4.10784046624290    0.31229445950605   -1.22271657357606
C         5.35737072125379   -0.13877609866054   -1.61816435059938
C         6.40144326138865    0.75831864719760   -1.77084182075333
C         6.19579363338581    2.10390085756924   -1.52615571282934
C         4.94337302703408    2.56251722810766   -1.13362431949529
H         2.91930687183174    2.00580397064509   -0.67326902542892
H         3.29371170333809   -0.38784727597747   -1.10200601723096
H         5.51643096353516   -1.19083762504589   -1.80359800193472
H         7.37668294353819    0.40858013494039   -2.07580943056261
H         7.00961614915993    2.81062876776735   -1.62834141403924
C         3.34201799702529    3.99748670993973   -3.32031504690932
C         2.75605274740080    4.47747992228103   -4.47849307802637
C         2.76580453348385    5.83358352244856   -4.75896169728699
C         3.37056694838913    6.71697274543471   -3.87957642245225
C         3.96261048173543    6.24188661735146   -2.72484650579145
C         3.94571302887676    4.88049346550073   -2.43295622701925
H         3.33624796879773    2.93707710043764   -3.11393071490094
H         2.29182364904507    3.78696610642885   -5.16732076366682
H         2.30964595749473    6.20112187374638   -5.66627076299933
H         3.38900736679097    7.77432499032444   -4.10058828026086
H         4.45785310024711    6.92115568391775   -2.04151528494847
C         3.66088351708450    7.02948419880619    3.25805802775216
C         3.25312752917900    6.66489860451092    4.52863920587169
C         2.98635062565263    7.63429615835602    5.47964890863967
C         3.13325204824797    8.97293017118715    5.15752640887945
C         3.54472771272361    9.33963392812112    3.88882201793593
C         3.80912361988488    8.36969483906422    2.93153510377948
H         3.87408391707384    6.26877921262376    2.52182755405535
H         3.14571163883439    5.61891838313499    4.77267553706564
H         2.66836698028951    7.34867271241568    6.47127488524560
H         2.93071255913213    9.73379070282015    5.89666522021233
H         3.66131606841728   10.38536731404108    3.64081622826199
C         4.20183448215932    8.78950841577359    1.52975241966954
H         4.71034507125066    9.76251263336191    1.56569267547472
N         5.08995875234552    7.87041506973411    0.95752695116548
C         5.70623735981714    6.97302540444065    0.52957722905822
N         7.28804752197563    5.69631861015421   -1.68842067638378

