51
CSD_code = SIWRUN | q = 0 | S = 0 | Stoichiometry = C25H22AgBrN2 | MND = 2
C         1.04216526699006    1.26327971277748    7.56223873889615
C         0.52764284445620    0.86794774202237    5.42025972863770
H         0.03147286123457    1.02349994086611    4.48412121513783
C         1.43270858388039   -0.06348710611732    5.80291629447325
H         1.87677925935560   -0.87371210965481    5.26253939767911
C        -0.58216170389973    2.77617976990514    6.53578997374198
C        -0.12951916348653    4.00669917786439    6.05885484818263
C        -1.00095717949412    5.08367875140045    6.08072378089074
H        -0.65981387387713    6.04305664673449    5.71960607210976
C        -2.29600699106634    4.95734339390927    6.56422774937651
C        -2.71790150350027    3.72073983698801    7.03183761322779
H        -3.72185588029865    3.61343202188108    7.41548063109899
C        -1.87800663751370    2.61747607911809    7.02788053663096
C         1.27409429193114    4.15008247145672    5.55267347350724
H         1.98562051231991    3.86492844113752    6.32774899829484
H         1.47227131985415    5.17792411556934    5.26234497976852
H         1.44455457052044    3.50643424858425    4.68941718448126
C        -3.21352379032458    6.13901890672573    6.61074371911322
H        -3.15890511583473    6.60624740854253    7.59436530024497
H        -4.24435281719306    5.83690407444479    6.44097461814380
H        -2.93282991676302    6.88130215480185    5.86749026645665
C        -2.34312464798341    1.29577807695676    7.55914880113091
H        -3.42520127127228    1.28067306220291    7.65335214074262
H        -1.91606275136473    1.12595093286370    8.55372341491745
H        -2.03109610366348    0.47454896637594    6.91537358892745
C         2.61706596955706   -0.60603255164608    7.92081248266245
H         2.93632107244962    0.01376105353724    8.77197870647762
C         3.79493305718592   -1.15433127693245    7.15348498204289
C         4.76827358796545   -0.46542110966822    6.46396251925069
H         4.76026447426181    0.61421095150912    6.42231694906619
C         5.76348924766527   -1.19178458164046    5.82185664100613
H         6.53606760241363   -0.67058533605088    5.27682939342935
C         5.77685520696066   -2.57679395274593    5.87653701640548
H         6.56245159133476   -3.12046606752713    5.37306374717875
C         4.79763470353583   -3.27353653901371    6.56813146360656
H         4.81369523189150   -4.35204545588318    6.60736855459128
C         3.80019874796056   -2.55650059769087    7.20676563512902
C         2.64985995213594   -2.99803382558567    7.98454930144663
C         2.20545330696819   -4.26470508796488    8.32441002329581
H         2.74530473453445   -5.14408674006577    8.00732369362156
C         1.05140554009368   -4.37938685634185    9.08446030165041
H         0.69083895335539   -5.35963458558062    9.35892811317864
C         0.35454823423345   -3.25601212234884    9.50360438469029
H        -0.53759574503378   -3.37044213051867   10.10008601800419
C         0.79811074336904   -1.98295785662102    9.17009121942125
H         0.26486497793412   -1.09999733948478    9.50722201255313
C         1.94076514306006   -1.86749533695849    8.41207330779186
N         0.30058855499814    1.66294184304982    6.51036707800191
N         1.73749824702332    0.20069008871274    7.11059141043685
Br       -0.06095752221578    2.53726045943695   11.74964909747908
Ag        0.65187422336228    1.97165823666148    9.55440288177276

