67
CSD_code = SIWREW | q = 0 | S = 0 | Stoichiometry = C35H20F5IrN6 | MND = 6
Ir        6.99413731024303    9.53134945081298   16.94009063999865
N         5.13375234525692   10.23013649248145   15.95664031529293
C         4.26100008125670   11.14728283871130   16.35700062351432
H         4.46058893091787   11.60487055427402   17.31699752116918
C         3.15354905317786   11.50764943957662   15.61358875688295
H         2.47410058264552   12.25794407770638   15.98431363270138
C         2.93857217199904   10.88312951989889   14.38769402881021
H         2.08127001135228   11.14230581634306   13.78465965726096
C         3.83698692094667    9.93079826953187   13.96040888497141
H         3.73174486760698    9.40866001693371   13.02357929669396
C         4.93372119097281    9.62410344451249   14.77105809706165
C         5.91374079704164    8.64801726263324   14.39646798160808
N         6.98216866758342    8.41727246504887   15.19244642948463
N         7.71589251044760    7.48784831779832   14.61601787492437
C         7.07715878347698    7.17304563979648   13.47740183002034
N         5.94547314154576    7.87986798882604   13.30462976254692
C         7.56657615511789    6.18499002001478   12.53917844720256
C         8.75401894136491    5.50226539335973   12.79883573356160
H         9.29222728295345    5.72369977027100   13.70715516571904
C         9.22616159198001    4.56191536378072   11.90480482284040
H        10.14271382703613    4.02241711851423   12.08566516504436
F         8.95876763236148    3.39326142688687    9.87406049319656
C         8.49939468246306    4.31398943677645   10.75346908651943
C         7.31820741078130    4.97715824477961   10.47183531902516
H         6.78233781100040    4.75399369858029    9.56241002552315
C         6.85419353499322    5.91593701770331   11.37199054281072
H         5.93761568930046    6.45380484568037   11.18708900949304
N         7.86510680379745   11.16143111730037   16.13813159195697
C         8.43078967643589   11.18564991019521   14.93319078076488
H         8.46484045902769   10.24876000976110   14.39535777012758
C         8.96877595451663   12.32949569339255   14.37590726960972
H         9.41512359966877   12.29451517887407   13.39559754251433
C         8.92164872174004   13.50598622230751   15.10920888064526
H         9.32962585673189   14.42197842441079   14.71060829089056
C         8.35291876794816   13.48638492017344   16.36832251816591
H         8.32330832626768   14.38921346160495   16.95228354681200
C         7.82841289283303   12.29748661629553   16.87687245585832
C         7.23432560154056   12.12456580671561   18.19839583749859
F         7.39132706061785   14.41216714975163   18.89049111605696
C         7.04849896054459   13.12897052662666   19.14894546758536
C         6.49528813546818   12.87849800666211   20.38775962670045
H         6.36191126091296   13.67156298826053   21.10437648035287
F         5.58303017618051   11.30874559675041   21.87617269679324
C         6.12547961193563   11.57583143723399   20.67120513736034
C         6.28328363818022   10.55127501385985   19.75805754271062
H         5.97290687967533    9.55744300271553   20.04363597659166
C         6.83558016580883   10.79772187750947   18.50478197960663
N         6.20427609515921    7.90089612434086   17.81511559585907
C         4.90365753206592    7.61599067619164   17.82785388963862
H         4.23696586477572    8.37081672846374   17.43298434054582
C         4.39292605136418    6.43033610020944   18.31716988070849
H         3.33002825716191    6.25147312980852   18.30182140512112
C         5.27933696814318    5.48690975627671   18.81699775828521
H         4.92247786063823    4.54328697539273   19.19954675403022
C         6.62948161914777    5.77695048459492   18.82031047733779
H         7.32811968417667    5.05614528764637   19.20649217543939
C         7.08198440557240    6.99815901072455   18.31796354117474
C         8.46926226173706    7.43914309448993   18.27282821006067
F         9.42774696019655    5.51647762894663   19.32517145170306
C         9.57285501847483    6.73072028615509   18.75090781798436
C        10.85768022729689    7.22566712990805   18.67138634980354
H        11.69321366725993    6.65889210050065   19.04706114050232
F        12.27431330885767    8.97581876491606   18.00810508749503
C        11.02859308217700    8.47040226728993   18.09276450306028
C         9.96760610267231    9.21000993901647   17.60674872286633
H        10.17481741472070   10.17541239429435   17.17133085892748
C         8.67280314274246    8.71159522920492   17.68504838698535

