17
CSD_code = SIWWOL | q = -1 | S = 0 | Stoichiometry = C3H8Cl3OPtS(1-) | MND = 4
Pt        2.08736559119410    5.61641381578863    2.12405772178961
Cl        2.58673986150613    4.07668299113116    0.44392918105477
Cl        0.19917168912724    6.27045477989611    1.08664255841911
Cl        1.72984083989931    7.10311579772246    3.80816341507066
S         4.06750038150521    4.94150345625391    3.04761202842973
O         4.57195934910834    5.39822806424363    4.33551685087380
C         4.35298396958536    3.13089908421973    3.02883335893209
H         5.40044934696793    2.94785672989093    3.23689223578394
H         4.05637638724251    2.76462104582762    2.05307831882784
H         3.73294000109137    2.69866759278156    3.80660661608111
C         5.34945442974067    5.39758562776337    1.81228742496591
H         6.31889732250543    5.16891441636453    2.25081656527908
H         5.15865598206328    4.79092677894723    0.93047382568667
C         5.17804546985128    6.87556441705806    1.52441279758469
H         4.16617148977522    7.05342674045523    1.14470255032182
H         5.89323911870751    7.22618038122917    0.78170996743339
H         5.30250877012804    7.44845828042612    2.44176458346709

