81
CSD_code = SIWXUT | q = 0 | S = 0 | Stoichiometry = C38H37N3O2Pt | MND = 4
Pt        4.95608688768187    1.68520211616733   20.85515996139879
O         6.39730805867939    0.24248021123780   20.24829199277503
O         5.91093947566678    2.98675373069958   19.62415069381330
N         2.87099620871853    1.23957863846589   22.75345589849721
N         3.95917418746368   -0.65643020856493   22.61070775545828
N         2.27936707175265    7.56860320881106   20.58574782582963
C         3.90630400851063    0.60101077910414   22.13100631700909
C         2.96655992298096   -0.83633912660265   23.55144178294983
C         2.60932330603505   -1.92604633201444   24.33364814610799
C         1.54955416842764   -1.77856328131101   25.20657150390820
C         0.85955911564607   -0.57509985778001   25.30542447175823
C         1.20337841803348    0.51795969261395   24.53417401516367
C         2.26379054593606    0.38543484317724   23.64711400211747
C         2.65303207255070    2.57586905433361   22.37243092290740
C         3.59476406214089    3.02737086331200   21.42420005355747
C         3.48454847708359    4.33034824412086   20.97151275056340
C         2.46428728211514    5.16437799058894   21.44274381161753
C         2.36394542258581    6.49023415306348   20.96915752543552
C         1.54215869664075    4.69122399498040   22.37396285261532
C         1.63589987325918    3.39259608790438   22.84059740358719
C         4.92824344173913   -1.64527109608871   22.16848607735630
C         4.23433620465474   -2.83333314544537   21.50648129133745
C         5.84921442051578   -2.05889829615658   23.31422734092331
C        10.85971331769699   -4.09971213988218   18.62420649519363
C         9.96302739357926   -2.91642840452101   18.83209531066180
C         9.04506319561480   -2.54748437338096   17.85914485665203
C         8.19535172889722   -1.46647644522880   18.03981170516009
C         7.20771881520512   -1.08427140034243   16.97714635239331
C         8.27311353605533   -0.74002371152133   19.22647181368830
C         9.17738673715834   -1.10176936092215   20.22474708838146
C         9.25325738497624   -0.30951938663949   21.49596060523859
C        10.01529360460857   -2.18536298950772   20.01020917284594
C         7.36283255421503    0.42732378498692   19.45447174086634
C         7.67114476132596    1.61172966319673   18.78857992586385
C         6.93736922097254    2.79407161854762   18.91514991043233
C         7.41814566978026    3.96154057959080   18.10870844653425
C         8.51388212717998    4.70357935491902   18.54525061180151
C         9.21564987688884    4.33977222445384   19.82044483911956
C         8.93707757648118    5.78181135151242   17.78368389576155
C         8.29201781288818    6.13263071817281   16.60583859643673
C         8.75390344470186    7.31737352500863   15.81229103201038
C         7.19826045305761    5.38434133008649   16.19577345358118
C         6.74627536214604    4.30262916939853   16.93611469555911
C         5.56160108982115    3.49871142744175   16.49030691518607
H         3.13348028605133   -2.86507204220170   24.27705636810397
H         1.25375736311186   -2.61162950628455   25.82532259752981
H         0.03883850347257   -0.49163141454667   26.00088728277746
H         0.65450517189030    1.43713700313347   24.63904477240605
H         4.18840137138151    4.71588912982805   20.24781498358630
H         0.75551732080623    5.34044395648023   22.72854464316485
H         0.91048683765401    3.04393417173999   23.55529025377109
H         5.53328407829475   -1.14223491192528   21.40990107784346
H         3.64918546480225   -3.41294191021731   22.21483033507653
H         4.98362422333602   -3.48401635165318   21.06405283569218
H         3.57412817813057   -2.48318348147662   20.71646650476441
H         6.28720618482365   -1.17612111251976   23.77455104699729
H         6.65240213000050   -2.67738533123967   22.92292911627021
H         5.32192097358459   -2.62107204520674   24.07988344385892
H        10.35121921760292   -5.01275377119920   18.93646337951931
H        11.77104362285468   -4.00416730527495   19.20980777185373
H        11.12374948157742   -4.20563538357131   17.57437089807160
H         8.98958548644786   -3.11464540273646   16.94032809732570
H         6.24327583293798   -0.83650708772566   17.41702234674902
H         7.07212585944463   -1.89686149051386   16.26725147257722
H         7.56033549287340   -0.20866825685054   16.43134179906739
H         8.26487957833919   -0.19692568983322   21.93796642782776
H         9.63992377978963    0.68997543156979   21.29328984233906
H         9.90786450999489   -0.79363925813211   22.21663535837612
H        10.72332935627306   -2.46532394517773   20.77795956389724
H         8.53236903137786    1.61941334450497   18.13765173187068
H         8.49492065303083    4.15165922327492   20.61475999853611
H         9.88218940539878    5.13928429468306   20.13481275697270
H         9.80628428764510    3.43333269263300   19.68299558740766
H         9.78469895943784    6.36415791478364   18.11734617019483
H         9.83900157720669    7.39574288734267   15.82958572061041
H         8.34467486510161    8.23290906122937   16.24057992241316
H         8.42066107533330    7.24845602592039   14.77959594072494
H         6.68322342117897    5.65156267521891   15.28363960165319
H         4.79110434479800    3.50133664458926   17.26055911419190
H         5.84971104551105    2.46170000650561   16.31399555926929
H         5.13973403649198    3.90435243492755   15.57416381654644

