97
CSD_code = SIWYAZ | q = 0 | S = 0 | Stoichiometry = C47H42CuNO4P2 | MND = 4
Cu        1.61973540606930    3.02165644791619    4.07093958759398
C         5.01320894417567    2.26359694352292    0.85852771386008
H         5.49114865343500    2.11506374781909    1.81595859414569
P         0.67750871466049    1.61889457350256    5.50047696269149
P         1.02938501199140    5.20779410612472    3.95593575370724
O         3.40666582669833    2.71053832476238    3.17210436499017
O         1.58973365226070    2.70601980126170    1.94736633624839
O         1.24495945656780    4.31239629817773   -0.46644932388237
O         0.86204712453236    2.10454654763341   -0.78452536747732
C         0.21704303643674    2.32528073885695    7.10953155650047
C         0.98548713863462    2.11603662133606    8.24982297865490
H         1.83852690052409    1.45322221412727    8.20723703255123
C         0.65336430300669    2.74868692080106    9.43429265694799
H         1.24748302765856    2.57412755259411   10.31967183187625
C        -0.43577021888240    3.60199932238430    9.48835794813744
H        -0.69467380031196    4.09047202697893   10.41590327214356
C        -1.18899196120456    3.83519524970000    8.34840090963568
H        -2.03100168857556    4.51048526805494    8.38393696398438
C        -0.85970908179929    3.20927285524920    7.16281876930093
H        -1.44001985729364    3.39808234490922    6.26973756094379
C        -0.88143456130832    0.88187805773890    4.90946963384147
C        -0.98152227248218    0.69969205126732    3.53210307728491
H        -0.15828588832868    1.01392174149861    2.90170921888847
C        -2.12493629546755    0.14720623610778    2.98602207546616
H        -2.20493001614516    0.01424278675835    1.91743866394319
C        -3.17303353169545   -0.22627886386948    3.81208807257593
H        -4.06885332955704   -0.65546363469317    3.38769422833412
C        -3.07763946246099   -0.04383720707590    5.18230370302734
H        -3.89780374855755   -0.33200118187978    5.82406492282627
C        -1.93692420086743    0.51029100635994    5.73520270604074
H        -1.87348621491009    0.66724380809478    6.80313707753979
C         1.64304026704455    0.13707692076051    5.94624024401730
C         2.94056568673999    0.05644770741381    5.45071305547946
H         3.32028381183408    0.86359936355310    4.83534948817455
C         3.72424086962601   -1.04567466537638    5.74485334582881
H         4.73214783705701   -1.10926265477853    5.36182313172303
C         3.21388171832115   -2.06735825519706    6.52839829930110
H         3.82411026683000   -2.92880117949293    6.75744051742457
C         1.91835463450856   -1.99068643120057    7.01748614411543
H         1.52308091944758   -2.79161861492281    7.62548765054513
C         1.12947421608852   -0.89327223123487    6.72802864206914
H         0.11876518471429   -0.83164690948679    7.10617876071738
C         2.09014673552156    6.46566652683855    3.18817419889413
C         2.75276170687502    7.45083382467842    3.91324864339880
H         2.58225196796858    7.54868266397987    4.97666513583900
C         3.62511770734665    8.30838018982828    3.26653463848022
H         4.13337635163526    9.07840906680442    3.82944607131165
C         3.85158294876541    8.18040854983570    1.90584743767016
H         4.53735032117837    8.85093405217132    1.40847181714824
C         3.20391794419447    7.18878970473083    1.18501627381017
H         3.38142063024769    7.07867434411291    0.12552938464960
C         2.33040258837983    6.32788160746982    1.82112242515840
H         1.82803659693988    5.55138736702972    1.25954687132858
C         0.72879955455623    5.87942710949056    5.62454594652522
C        -0.31000976999202    6.74606071103512    5.93888883551812
H        -0.99749119849046    7.06534676233982    5.16829873867799
C        -0.45916132043675    7.19666418819305    7.23861883102047
H        -1.26714290007432    7.87163194009505    7.48231587475546
C         0.42442177127898    6.79118330871499    8.22528730273458
H         0.30474274967842    7.15023337528756    9.23689055506207
C         1.45884965950778    5.92187708192149    7.91730770362908
H         2.14422368330634    5.60015812875206    8.68747116279626
C         1.60393113453577    5.46045275723389    6.62349601332383
H         2.39588868110971    4.76699989111949    6.36526381857081
C        -0.58321404237997    5.44335679148616    3.14728901032039
C        -1.51073944390005    4.42355529314483    3.34015757724256
H        -1.21888631653469    3.55531339667864    3.92040580066306
C        -2.77044174020855    4.50643983553704    2.78048250866534
H        -3.48365385345436    3.70957621270086    2.93557373708117
C        -3.10725400331255    5.60702636093530    2.00827693422514
H        -4.08796496216646    5.67338128889331    1.56040862867426
C        -2.18257478342297    6.61749629921426    1.80024389829074
H        -2.44421639629082    7.47006841911529    1.19038461190672
C        -0.92253865223839    6.54270866939215    2.36775427546103
H        -0.20287991447354    7.33157740779377    2.20102354639584
C         3.65683933078064    2.56251403309677    0.81891957995159
C         3.05850907096518    2.76330617194817   -0.42542453095315
N         3.72209663475895    2.66510234993056   -1.56730083029959
C         5.00978287334071    2.36719748034917   -1.51661338299551
H         5.50207966389751    2.29222736518893   -2.47778559164080
C         5.70695190389086    2.16399604738162   -0.33444593458910
H         6.76097566394686    1.93192016187122   -0.35072794401274
C         2.83611908164963    2.66783461735816    2.05401044594706
C         1.60596351807926    3.16292435861303   -0.52300886990836
C        -0.57057740442125    2.22673561205402   -0.96664394072870
C        -0.85550123612938    2.97939602296993   -2.26590418705872
H        -0.38419782759638    2.47224658347226   -3.10501011315544
H        -0.46227656043284    3.99048129397981   -2.20263125428298
H        -1.92819190349905    3.02729815188683   -2.43453013962648
C        -1.05053143697492    0.77798952861690   -1.06250738197479
H        -0.54991492078697    0.27530826736938   -1.88603948612556
H        -2.12429233109890    0.74813327037797   -1.22686183563133
H        -0.80979778512324    0.25124758391544   -0.14284716358006
C        -1.20681884811938    2.92871460587152    0.23179432288954
H        -1.04169913007162    4.00104482429191    0.18147548621994
H        -0.75370223005032    2.56587941122028    1.15005661117426
H        -2.27619604205508    2.73475337553456    0.25465916948274

