49
CSD_code = SIWYOP | q = 0 | S = 0 | Stoichiometry = C26H18Br2N2Zn | MND = 4
Br       -3.48885317371807   10.03829068392299   -0.92390993884718
Br       -2.74049752813948    6.82057730455306   -3.75543129968584
Zn       -3.40628799742238    7.79696180262589   -1.69743013714852
N        -5.47730439378258    7.11165598749152   -1.39587170458209
C        -6.38020295521813    8.03926644803678   -1.29053408761086
H        -6.03557943713742    9.05509188866136   -1.14172354460143
C        -7.77724964389695    7.80672971292253   -1.35542636507235
C        -8.68973165190025    8.86915661460824   -1.23964774639341
H        -8.30955588813237    9.86839573423603   -1.08883893613452
C       -10.03606994894390    8.62812178870293   -1.32275286777086
H       -10.74298603060705    9.43908810395082   -1.23716259930664
C       -10.49826601878614    7.32374227919532   -1.52320832468981
H       -11.56084908885837    7.14254001631200   -1.59001464914732
C        -9.62180546448395    6.27239577341225   -1.63714126987847
H       -10.00960625159593    5.27852149676722   -1.79322087630192
C        -8.23718617792599    6.48467549061719   -1.55514316455296
C        -7.24471630035150    5.44751552184980   -1.65637429589923
C        -7.56151206081048    4.09290515899963   -1.83835687117265
H        -8.59469986740299    3.79365758300938   -1.91373164983073
C        -6.57968177651511    3.13746148186556   -1.92521531334507
H        -6.84727693136514    2.10200882051659   -2.07217914991617
C        -5.23609215365841    3.49806726192304   -1.82394449078632
H        -4.46709038992408    2.74453608974979   -1.89392093097969
C        -4.89203937614545    4.81293475986022   -1.64239042386207
H        -3.85345718629110    5.09254645456404   -1.56539063109476
C        -5.87660707913829    5.80822060799952   -1.56603748424906
N        -2.34383524048761    6.85583407056083   -0.02869066316872
C        -3.06047329878603    6.32606095601145    0.91401929272793
H        -4.13496147405333    6.33182226496341    0.77957473485468
C        -2.52902785936420    5.74215671385877    2.09085273147447
C        -3.37208520176939    5.17541374527120    3.06200313240257
H        -4.44039577876054    5.19802886898266    2.90307147595210
C        -2.83826843980597    4.60584109547380    4.18751764566249
H        -3.48044037289225    4.16840850750856    4.93668747252712
C        -1.45151516525803    4.59004980587526    4.36763262944651
H        -1.03860710329456    4.13927810584000    5.25783392998556
C        -0.61124890135911    5.13901955574229    3.43079716121250
H         0.45330850304829    5.11172012479092    3.59844247700101
C        -1.12579844643707    5.73103684700067    2.26659323302113
C        -0.32397935728061    6.33435062812931    1.23627957048031
C         1.07606515963718    6.40733552252682    1.28942093079504
H         1.59975212126112    5.99200568487211    2.13563310237958
C         1.79551744975333    7.00301239726140    0.28325386516054
H         2.87240994466863    7.04622343573841    0.34505820572996
C         1.14277078654761    7.55795155207013   -0.81814753627706
H         1.71258401113677    8.03052937704521   -1.60278644347916
C        -0.22434861417219    7.50178739871824   -0.90202923748062
H        -0.73012643339529    7.93592199545310   -1.75234022323473
C        -0.97989151674790    6.89004647998343    0.10812126568389

