36
CSD_code = SIWYIJ | q = 0 | S = 0 | Stoichiometry = C15H15Br2NOSZn | MND = 4
Zn       -0.13016002734565    6.97895948388273    8.73915156353539
Br       -0.07454320066184    8.13522580803386   10.79791693150714
Br        0.35117008844676    4.67418004143272    8.59664954442037
S        -2.32835021878678    5.95480790076935   10.08389495693890
O        -2.15983950068799    6.70780977816024    8.79892917937187
N         0.37583811094286    8.38531669937938    7.23400808622062
C         0.96331193641948    9.48039084412850    7.61196042388927
H         1.11366105795257    9.62628099665385    8.67468047068344
C         1.41538448345081   10.48522689714323    6.72112498255335
C         2.04457940839139   11.64552613111558    7.20453678265400
H         2.16831086270021   11.76485786465808    8.27038855563417
C         2.48865382656428   12.60026847332226    6.32780647487071
H         2.97287908772991   13.49354469324608    6.69129371149668
C         2.31525499650874   12.41636999944428    4.95239723036022
H         2.66967818325901   13.17308181538172    4.26831130236656
C         1.70147345873473   11.29013339612715    4.46094204011063
H         1.58215545265171   11.17800102894749    3.39532312839137
C         1.23253189581533   10.29418079717054    5.33121574693454
C         0.56845324256147    9.08957047078104    4.90901867544705
C         0.30847555194619    8.77771145814397    3.56583890244585
H         0.62300569963465    9.45781828770984    2.79050543171931
C        -0.34231550211557    7.61989928387893    3.21776828025472
H        -0.52870104255825    7.39964225100974    2.17748334675758
C        -0.77121559731233    6.72729324452278    4.20104557327313
H        -1.28951901219624    5.82350936607845    3.92091798660052
C        -0.53075242855579    7.00027895145883    5.52318066334890
H        -0.87206374547271    6.32302178345819    6.29079321348145
C         0.14585367983939    8.16770617156686    5.89980107669237
C        -3.62625907626332    6.89114867655503   10.95173259796742
H        -4.43121832632329    7.10776372326776   10.25970192099235
H        -3.17526793161549    7.81250309794084   11.30602177945904
H        -3.97211978131117    6.30286867981179   11.79284821281434
C        -3.37084671940450    4.54323629585463    9.59756172934625
H        -4.19857411524423    4.89955184342917    8.99619030977829
H        -3.71726587480911    4.04410474126261   10.49419702274443
H        -2.74545892288880    3.87090902426365    9.01886216495106

