41
CSD_code = SIWYAA | q = -1 | S = 0 | Stoichiometry = C18H11Br2CoN5O4(1-) | MND = 6
Co        1.62072238683248    2.39521322879173    1.68845943364266
Br        3.31297970180530    1.74744271473021    3.29380108078684
Br       -0.11535809152041    2.70150600240451    0.02878013125308
O        -0.73007048571477    4.32975547142321    4.23913938549866
O         4.54846045574718    4.04023545984830   -0.43590939165772
O         0.79398679763273    8.60920947850692    4.25633056551136
O         2.28445199071147    9.56946836131996    3.04415815517293
N         0.94283834433947    3.77897503022609    2.73734463509889
N         2.73563368446079    3.70527601520256    0.96860904739107
N         2.51117175587739    1.24479536624610    0.35605172254692
N         0.36850551830084    1.30350173477933    2.74412974305048
N         1.65426638373365    8.57829861087911    3.39150017365758
C         1.53447645371888    5.00349185374858    2.49903570570125
C         1.23141752511650    6.19905676411684    3.12569578585689
H         0.46029501633660    6.24978427261343    3.87780582263999
C         1.94558485725619    7.34142797307521    2.75985928475248
C         2.94613328678582    7.29701242572343    1.78704777303801
H         3.47238245132122    8.20593694549065    1.53933583354849
C         3.25167578797601    6.11090112411643    1.15942745533089
H         4.02188447541620    6.05650778120897    0.40791851682888
C         2.55209965082475    4.95396313989495    1.50588854985193
C        -0.09857608786684    3.54523239150735    3.54220387263347
C        -0.39999514068499    2.07661713815962    3.52901007647042
C        -1.38761606549610    1.55908560333884    4.35615511488406
H        -1.96106088608814    2.25796138980802    4.94510188767738
C        -1.58618099306492    0.19416394923035    4.39843163163433
H        -2.35221557818441   -0.23992745255379    5.02384239340636
C        -0.75181976012375   -0.60749963661405    3.63258889091529
H        -0.83504574587795   -1.68306006067598    3.65258615636620
C         0.20600401335764   -0.01284855016058    2.83247096124358
H         0.88365381983140   -0.63081793974284    2.26123691612337
C         3.67971986443581    3.35058102956856    0.08519563602091
C         3.51047870597625    1.90203225528005   -0.25531651388406
C         4.32054713859814    1.31169654969954   -1.21573209996967
H         5.10515826899224    1.91381057702064   -1.64701328722749
C         4.08911073173554    0.00095005930879   -1.58132881287782
H         4.70789659781107   -0.49118590402231   -2.31699605455937
C         3.01918440103368   -0.65755869407723   -0.99326682014235
H         2.76648377746141   -1.67042545322622   -1.26584822028081
C         2.26191052834531    0.00181033436578   -0.04243723900544
H         1.40512446284934   -0.49077734055988    0.39400610107092

