31
CSD_code = SIWYUT | q = 1 | S = 0 | Stoichiometry = C4H16CoN6O4(1+) | MND = 6
C         1.09955962456626    4.40147441507262   13.78445292199840
H         1.92040222969477    4.37560714108597   14.50587571587269
H         0.42657928440428    5.21877040446585   14.05654688132644
C         1.62131953988877    4.61105449118315   12.36895016628768
H         2.11055845496000    5.58361451906031   12.27049825465987
H         2.34808618552530    3.83264658356530   12.12239434625280
C        -3.04368232764114    1.40576871181857   11.81391232531060
H        -3.77038821871577    2.18367769605261   12.06213580803523
H        -3.53247468217689    0.43293764598480   11.91188491500233
C        -2.52379620897125    1.61666944283527   10.39788283961193
H        -1.85220162440708    0.79901715358781   10.12357437522464
H        -3.34587257683761    1.64444161025804    9.67795914409283
Co       -0.71109364224769    3.00847406803032   12.09114889894535
N         0.49410788640814    1.80135957937639   11.39146378411734
N        -1.91771958460972    4.21449670651538   12.78993092905967
N         0.33341261890103    3.13934740522359   13.78265691571784
H        -0.25406650100877    3.11358033694346   14.62027032973356
H         0.97909709358128    2.34565260515273   13.85303254242291
N         0.46672637514261    4.48519989133245   11.45737681014438
H         0.81648713453095    4.34026146342928   10.50657080277073
H        -0.05860178991134    5.36594141248754   11.44518686060029
N        -1.88816267312925    1.53120489343740   12.72447542785368
H        -1.36387462816211    0.64997352449464   12.73743099074769
H        -2.23750957524425    1.67765617324375   13.67525355416740
N        -1.75602889319859    2.87791173830414   10.39986098351396
H        -2.40038449891859    3.67234639878813   10.32709875503725
H        -1.16681455380998    2.90153059163659    9.56334652964144
O         0.89962577635796    1.98216933482558   10.25425291127792
O         0.82853754338690    0.87389279750654   12.11569658367424
O        -2.32842442974633    4.02986619886708   13.92479877370401
O        -2.24360333861182    5.14825506543463   12.06947992319488

