45
CSD_code = SIXBIN | q = 0 | S = 0 | Stoichiometry = C17H18MoN4O5 | MND = 6
Mo        4.04636431057864    7.13642340098837    0.86342267704395
O         5.90105551635773    7.43623074254728    1.37452670463255
O         4.66832832618529    6.58484660112335   -0.74352412287076
O         2.32021336986466    6.60692601160896    1.16547914593119
O         4.50781881864631    5.27876077364057    1.01134677394091
O         3.67509885134500    8.72100117878429    0.72064132781535
C        10.23112523699951    8.32713681336364    3.73721401412779
N         4.05233215793988    7.26612992046747    2.98849998174621
C         9.87208595233146    8.17258223763162    2.39204967249017
H        10.63591357583766    8.24940615170932    1.63183009255769
N        11.53638546857590    8.51807283286000    4.09039158887471
C         8.56591633027071    7.92734884898692    2.04292437083434
H         8.28174326522110    7.81239990137283    1.00681279694112
N         5.26123552016138    7.48590664133177    3.53972137023764
C         3.02982943920895    7.31180545640915    3.78413903296543
H         3.22633713931666    7.51299953625467    4.83739542717503
C         6.19617214815044    7.56980941923070    2.62729688585044
C         1.35250830176809    6.79926555598132    2.03010933926853
C         9.23429749659612    8.22609240021760    4.71744386287043
H         9.50786068684710    8.34489102911335    5.75586591188273
C         0.62703317427649    7.30102652268237    4.29515596816621
H         0.87188933444242    7.55949215385765    5.31481893875216
C        -0.99391598464703    6.81420600274701    2.60033604503003
H        -2.02477230098248    6.69260229053144    2.30349008443226
C         1.67162713373590    7.14216333678305    3.37218350005736
C         0.00882309293650    6.63621782931462    1.67019062197515
H        -0.21627765275394    6.37588122040870    0.64614064821714
N         4.27108138216114    4.29206911266548   -1.08091856237260
C        -0.68727492227923    7.14477036784794    3.91714274748476
H        -1.47883214827019    7.27790322418851    4.63791829871741
C         4.93121051750971    5.28630528677600   -0.26822332866465
H         6.03327725718194    5.11520586969497   -0.33603384388432
C         7.92857855091326    7.98049574792737    4.36733132628731
H         7.15663628730988    7.90426217494993    5.11510974530786
C         4.72503694654459    4.34924640104009   -2.46046080934217
H         5.80457919785606    4.20834076822256   -2.47949523231367
H         4.48265617824856    5.30624261655100   -2.94079463373607
H         4.25164725334326    3.53700599694713   -3.00948593966317
C         2.82467687105152    4.39375392362670   -0.98186219601697
H         2.54334199534054    4.26057451105872    0.06424976660461
H         2.38593309260678    3.59182862880980   -1.57392697865629
H         2.44432043899934    5.36619117769079   -1.34814552095857
C         7.57353338506496    7.82773248745476    3.02358504096811
H        11.73771419803503    8.82777355677626    5.02525973276781
H        12.19005480918445    8.78647333783848    3.37544772653874

