55
CSD_code = SIXBOQ | q = 0 | S = 0 | Stoichiometry = C26H25INPPd | MND = 4
Pd        0.44622928429856    2.76051193682980   13.05125616074970
I         0.09660356342037    0.23617896759342   13.24306007029884
P         1.14171671530381    4.86978568222638   12.96744931666265
N         0.12332056095770    3.38597379710745   15.33048385109765
C         0.94188611381247    5.58965542762037   14.62797788697142
C         1.29551736598763    6.90484516531403   14.91044620406772
H         1.66080907395660    7.53786333246396   14.11414888087882
C         1.18179784447131    7.39440296577615   16.19676133153579
H         1.45660707463375    8.41542094855133   16.41438384420876
C         0.71784881028760    6.56675612466546   17.20659128654331
H         0.62530924203407    6.94375460459426   18.21416980049638
C         0.37086036021907    5.25595895065518   16.93475471008791
H         0.01108053489122    4.63018083945885   17.73763689547024
C         0.48378585014004    4.74708556632025   15.64522341280726
C        -1.33871398457894    3.28222992709951   15.20535735131356
H        -1.61435977831027    2.24260975775840   14.99642661869146
H        -1.68605487425298    3.92436440286998   14.38080183112194
H        -1.84627485471446    3.59733202206388   16.12849819807716
C         0.62890693343409    2.43760024668131   16.32368605071681
H         0.52163080352073    1.42282104263585   15.93598762969343
H         0.08857389261918    2.49411047109266   17.27623669315649
H         1.68735179667092    2.63436469009262   16.50078374100158
C         0.49249214048159    2.68280645841879   11.06824297344444
C         1.61736268454125    2.29189828679439   10.36285399964734
H         2.50336117948597    1.93665217525013   10.88422920602583
C         1.59924991611825    2.33800750401761    8.97694518770815
H         2.47353791519120    2.03170368340135    8.41988626613266
C         0.46644833178108    2.77138053055209    8.30914088300105
H         0.45757883614554    2.80793245896541    7.22939358366529
C        -0.65888759309533    3.14979724859523    9.02175536392213
H        -1.54667734532282    3.48034585232164    8.50119440235552
C        -0.64826933664011    3.10832166481789   10.40701475391870
H        -1.53655634959368    3.40485299206451   10.96745170766578
C         2.95565736869783    4.77926674436328   12.85075515556438
C         3.52849879977404    3.54982709766245   13.17392533151939
H         2.87939236191357    2.70348609747500   13.44261199638061
C         4.90173008622109    3.39473847495055   13.14458791424177
H         5.34415631916378    2.44063055636119   13.39028092797431
C         5.70781922748062    4.46508419515582   12.78988516929640
H         6.78047086794773    4.34451510804969   12.75948141602803
C         5.14145378257870    5.68809030542702   12.46784059857077
H         5.77312569981887    6.51857897072666   12.18818190027197
C         3.76812683072287    5.85112668658965   12.50041222207885
H         3.32609111014357    6.80270370107526   12.23853055925956
C         0.64578186556449    6.14463784557935   11.78646216934335
C         1.14693612378557    6.05510123692856   10.48846751980070
H         1.88671458910768    5.30016639817481   10.25467409086132
C         0.69323009465950    6.91921288643499    9.51137957883460
H         1.08502338465423    6.84777716749891    8.50773390050038
C        -0.27033561034415    7.86818419809044    9.81675831890595
H        -0.62559465719371    8.54231013155694    9.05170824431134
C        -0.78810944597818    7.94468172298904   11.09934862669199
H        -1.54824300859889    8.67573391201045   11.33343340720269
C        -0.34183942257174    7.07938949855413   12.08182532315403
H        -0.75825907546034    7.12815133967583   13.07968553609030

