78
CSD_code = SIXCEJ | q = 0 | S = 0 | Stoichiometry = C36H36O3P2Ru | MND = 8
Ru       10.40290576510142    5.00088866173618    8.15344564622334
P        10.86361110264336    4.87485262197224   10.34695672601715
C        11.74366358927265    3.32634291259612   10.76723251971621
C        13.06700750464144    3.28709440821875   11.19052468953207
C        13.69302212753931    2.07121141641734   11.40910095628689
C        13.01132985965859    0.88511901842815   11.19922104318666
C        11.69991463384919    0.91474590644956   10.74896080534461
C        11.07710337479105    2.12654263485736   10.52634561253038
C        11.91585460637729    6.06016656978629   11.25231350933898
C        12.03471754291498    6.04182805194785   12.63753380749497
C        12.87057359909699    6.94373424299385   13.27123344102250
C        13.59957195042150    7.85902538502351   12.52868988660891
C        13.49858287275092    7.86783428856387   11.14687443395905
C        12.66142398053491    6.96884365426335   10.51130493071423
C         9.34352486656617    4.68648867635160   11.42627045115353
C         8.05387862475686    4.87693840966031   10.63043379448693
P         8.29378416675289    4.59310397113346    8.80110185412042
C         7.64956054866268    2.90428649331889    8.52972331896654
C         7.55562185729023    1.91645871895771    9.50235358558164
C         7.11852752801754    0.64659796991759    9.16433772311301
C         6.77358273947677    0.35090507619001    7.85707131910888
C         6.86397661444647    1.33146762990731    6.88063003845746
C         7.30259877412002    2.59736520222651    7.21491073543789
C         6.86852966023905    5.51821812752792    8.13721313982331
C         5.59226831678334    5.38566896248556    8.67728263412022
C         4.53699054595753    6.09146158041116    8.13104309584679
C         4.74511086608765    6.92235435552247    7.04046243315930
C         6.01018617698110    7.04008325285076    6.49021256232394
C         7.07137508538054    6.33721419623023    7.03454342135849
C         9.98735234617695    6.97276792969395    8.58648636451521
O         9.75296958719279    7.07763182582163    9.93728543900416
C         9.50249821306039    8.32835238207599   10.55247752777678
C        10.05387916217062    8.11162265809239    7.84742131260234
O         9.82760345367093    7.32782150765810    5.60450578577999
C        10.07595479693481    8.19931179669149    6.41542680643534
O        10.35787022222493    9.47564497131298    6.01359453015603
C        10.34983697239415    9.68934420024551    4.61718816435445
C        11.79456356548334    5.32289518205705    6.40173414887778
C        12.44590627922358    4.52798221068286    7.37392006640172
C        11.73289232394257    3.29557585407691    7.47675819655685
C        10.63374101613534    3.35781194995031    6.60437395657668
C        10.65471568860151    4.62015438981877    5.94398982405005
H        13.61139910557856    4.20736894103779   11.34912689586646
H        14.72104590405916    2.05121879884594   11.74162137770543
H        13.50336988606511   -0.06089246343658   11.37192276335447
H        11.16983429733944   -0.00832833149195   10.56111637964193
H        10.06909310147258    2.15837239669164   10.13144526775564
H        11.48493682806734    5.31204500026352   13.21659435393930
H        12.95863076765591    6.93071989931420   14.34826003030512
H        14.25041988491092    8.56185004179726   13.02803106030529
H        14.07266770222946    8.57627453604942   10.56709751644301
H        12.56011945081734    6.96637792331223    9.43135833684379
H         9.38428634540382    3.68817058501695   11.87063446062047
H         9.40458698790108    5.42421822494877   12.23026711050406
H         7.71133669688005    5.91291838009988   10.70640246247066
H         7.25565378793649    4.23125128648953   11.00677266546666
H         7.81499027325523    2.12991705508147   10.52987253585970
H         7.04706230308758   -0.11570447034040    9.92730708626111
H         6.43430586367651   -0.64134334263685    7.59820934654273
H         6.59339078094774    1.10400693759275    5.85952589709515
H         7.38015697735901    3.37266037156678    6.46239856132176
H         5.42627332966030    4.72565077031134    9.51779334129525
H         3.54679731779261    5.99217153297581    8.55274395767622
H         3.91641562467731    7.47214509634116    6.61795248669566
H         6.17250582506329    7.67849272984546    5.63423093560126
H         8.06715935991514    6.41507345714644    6.61616803448471
H         8.65283082270229    8.83216603058784   10.08308350335948
H        10.38312504139772    8.97625917833563   10.51645150239301
H         9.26913388215216    8.11031737350722   11.59478877133946
H        10.06012785879882    9.08747141474735    8.31683464564149
H        10.56099383916218   10.74563097271575    4.46648667955486
H         9.37544310023360    9.43051680191167    4.19461455061316
H        11.11206459795254    9.07654503962539    4.12823564164312
H        12.16286172780399    6.25630989622471    5.99967287183298
H        13.42265332824709    4.71901810837623    7.80300372901098
H        12.06862544709911    2.42050373007266    8.01744987749089
H         9.96165057731522    2.53847618921492    6.38023335299596
H        10.03706886706462    4.91169065373877    5.10840177195460

