46
CSD_code = SIXCAG | q = 0 | S = 0 | Stoichiometry = C17H19MoN3O6 | MND = 6
Mo        5.68030117442161    4.63442530201141    4.66211790040029
N         6.40278181930169    2.71550817497554    3.94030169026260
N         7.62751210118953    2.38381249738704    4.40865424230289
N        13.13710731378776    2.85313256077139    7.61457823453970
O         7.52297720988539    4.50742630245701    5.17408397395978
O         4.43463970356961    4.27867792917586    3.37750779537094
O         5.75995872102065    6.27780158082856    4.52319418055411
O         4.98168948426298    4.01192570818277    6.01800913871496
O         7.03354461967749    5.19745376551718    2.44220291365566
O         2.03088114178493    4.68390342452629    2.40417982700193
C         8.15330143196779    3.37560417208958    5.07808677980955
C         9.45356226184792    3.22377658150003    5.71601464470108
C        10.18941188211304    2.04038149788272    5.60634015873509
H         9.77697149442169    1.22716818981752    5.03180654846804
C        11.41536152249194    1.92600843481512    6.21689807106160
H        11.98490054869163    1.01181044501352    6.13080423099230
C        11.94444099648651    2.98814412233794    6.96253612294956
C        11.20177060511678    4.17060163921822    7.07410625709445
H        11.60327841800806    4.99129267431640    7.65069982760538
C         9.97715518226953    4.28525887282648    6.46153683051188
H         9.39652812884391    5.19346393674111    6.54456861001733
C         5.73481836456115    1.78602731272173    3.33698159400791
H         6.19387379952261    0.80098251840517    3.25081067756587
C         4.42428405452044    1.97475367233992    2.79846809166320
C         3.81314179501304    3.24454086800371    2.85196733343264
C         2.51112167525504    3.41677163300983    2.31104667126432
C         1.85456492925975    2.33654443594650    1.75097162978467
H         0.86237532695526    2.44769122779774    1.34365248177875
C         2.46934376541625    1.08474001128841    1.70274329843569
H         1.93691267930238    0.25775286021591    1.25913805147343
C         3.73035968686097    0.90178493468328    2.20974285737385
H         4.20300719254828   -0.06760720543213    2.17210331444281
C         0.71435571535949    4.93401836303626    1.97505277884506
H         0.60020615995166    4.75000287795953    0.90130069195259
H         0.53473666414981    5.98747079860485    2.18171734433991
H        -0.00969737747135    4.32750112933353    2.52788620601988
C         6.32109841054060    5.42914027737859    1.23350587472442
H         5.25020886506540    5.56640426873413    1.44468699400287
H         6.45330648032873    4.52528442003236    0.63023052381341
C         6.86469449170421    6.64852000477643    0.49945475789220
H         6.72262280106376    7.54111072375222    1.10549723041619
H         6.34271325833579    6.78078897923194   -0.44420105189631
H         7.92696766903746    6.52534554278707    0.30120749824839
H        13.58269847241090    3.67985642649867    7.97253405866639
H        13.73758666529951    2.08761395387362    7.36270075128825
H         6.95182269384339    6.01088215261750    2.97457236177341

