40
CSD_code = SIXCIO | q = 0 | S = 0 | Stoichiometry = C15H15MoN3O6 | MND = 6
Mo        1.43486230425095    8.13674103568663    2.74330150981714
O         2.98012383400982    9.18149991351253    2.29357213900244
O         0.45913236925073    7.34794749582711    4.07411044771703
O         0.30669128711662    8.96860490457158    1.87731605676121
O         2.06917537661391    6.76285261696886    2.08401025483563
O         3.44937783122744    7.16471565260480    4.33725234981283
O        -2.99388773216003    6.19517215801360    7.00558153272806
N         1.65984835297614    9.62032513158987    4.30288240820742
N         2.54868989690287   10.59883364172078    3.99894002481909
N         6.99298053129095   13.84346263543740    0.74063184142300
C         3.19083541707875   10.31689870422251    2.89951890580677
C         4.16665256803513   11.24879632110881    2.35188478279945
C         4.79973650191874   10.94501078817653    1.14215852121650
H         4.54239626909885   10.02180485981757    0.64131890263520
C         5.71892276803375   11.81032405627498    0.59917471826422
H         6.20402849858536   11.57440747540919   -0.33685183712194
C         6.03670409365073   13.00967902001313    1.24906777508337
C         5.39884278919621   13.31105230427714    2.45994696022713
H         5.64014277185681   14.23637097259672    2.96286787361297
C         4.47780898332949   12.44674203114790    3.00150929299405
H         3.98052014657288   12.67490453908981    3.93004489615389
C         0.90327209402960    9.82353473020577    5.33558016996949
H         1.03290048441978   10.75787675654125    5.88213758981962
C        -0.09312547280804    8.90862138769363    5.77548571365545
C        -0.29201929692760    7.66943671610146    5.10272330803587
C        -1.27838909326962    6.79870602608342    5.55846365497818
H        -1.43042318913055    5.86085421502288    5.04569136929539
C        -2.07250401547731    7.11808791236866    6.65656916608546
C        -1.87476742090414    8.33723440372783    7.32038969986112
H        -2.47649514529449    8.60683851761615    8.17282734536018
C        -0.90306464995686    9.20362299190300    6.88059085566705
H        -0.75602086379484   10.14241709804997    7.39424140494931
C        -3.83480396969510    6.44550185930828    8.10927693345908
H        -3.26077159558385    6.55645035635166    9.03408828878247
H        -4.47957220971172    5.57195646458702    8.18905571805965
H        -4.45065059969201    7.33569789170425    7.95091257295141
H         3.17642777736285    6.46991351961352    3.71410761328368
H         4.27352158531516    7.51744032459937    3.98302308242953
H         7.27165945026666   13.71604575159949   -0.21705725438136
H         7.04504127201638   14.78091681885672    1.10045341094163

