37
CSD_code = SIXCOU | q = 0 | S = 0 | Stoichiometry = C15H13MoN3O5 | MND = 5
Mo       13.35918390364604   -0.54993347067536    2.16515343830242
O        11.49975940763927   -0.25742248069695    1.87030734549525
O        15.09113342431776   -0.00994969061335    2.03278492307167
O        13.22570235861256   -0.66465031452810    3.80388860556119
O        13.42775174194322   -1.89537999485497    1.21757143471579
O        19.48973136811791    1.56922712572995    1.82211516398221
N         5.46530673870512    1.36027141641436    0.78643062422387
N        13.13090434065215    1.44879190349868    1.26248787961173
N        11.84298693236777    1.79788989339466    1.01498336641017
C        11.02327715751688    0.84185320135089    1.36934584026444
C         9.58613464209710    1.00098524243074    1.21192715943529
C         8.73857712176017   -0.03761887983896    1.61423155188552
H         9.18073502723522   -0.93375606332183    2.02737128414140
C         7.37650147227865    0.08674426307444    1.48927054716839
H         6.72389263053245   -0.71538936457952    1.80149338074971
C         6.81471299402252    1.25487876367048    0.95630653786154
C         7.66764448106588    2.29147368573850    0.55156582954080
H         7.23746301611846    3.19243762143725    0.13861083596567
C         9.03015284963024    2.16706091590012    0.67682019756271
H         9.69074085542741    2.96150745002261    0.36986590987266
C        14.03316279338886    2.33866470768495    0.96215340614046
H        13.67988074135006    3.27783650997159    0.53620884479002
C        15.42896773995247    2.16212653618920    1.16405983479332
C        15.92981805974194    0.94805744114782    1.71949292424501
C        17.29966616409311    0.80161229627554    1.91734739977502
H        17.67613982616453   -0.11801871636526    2.33917990782414
C        18.18756663492099    1.82164721970904    1.58261163632979
C        17.69514208744461    3.01527113093135    1.03313759030873
H        18.36397252326652    3.81674183737715    0.76553839754241
C        16.34493443614120    3.17034330953067    0.83241813332069
H        15.97144958314268    4.09157008327456    0.40999844009576
C        20.45231023193582    2.55353801726558    1.51611986972864
H        20.28531220008570    3.46979728356395    2.08993365843747
H        21.41087879748631    2.12181201355116    1.79897145391256
H        20.46235375682432    2.78621686002462    0.44728229381918
H         4.86897052674099    0.69780597152475    1.25063510766784
H         5.07318143363201    2.26405627479155    0.58737924544626

