53
CSD_code = SIXDIM | q = 0 | S = 0 | Stoichiometry = C26H23INPPd | MND = 4
I         7.70612487879447    4.37760050531595   12.13461914721342
Pd        5.76765992973582    3.98385129011482   13.75707013716141
P         3.97759735982314    3.36188624560345   14.93739860680308
N         4.13084870641033    5.32902587267116   12.78608288957788
C         2.91536325334675    4.71228070277167   15.52488213164850
C         2.37957098408361    4.70147882270380   16.80806160348670
H         2.59440510123802    3.86950378697062   17.46405297526026
C         1.57416287034926    5.73483514877308   17.25214720887846
H         1.16857468040302    5.70781244299744   18.25246078343638
C         1.28263878100522    6.79436986138812   16.40817448005734
H         0.64895728636754    7.60055905459620   16.74525205442329
C         1.80138187756129    6.81357915663464   15.12846397449706
H         1.57229586932203    7.64093190408477   14.47141036994402
C         2.63619711693629    5.79297679426913   14.66784427961473
C         3.12926424848765    5.91338632313625   13.30352726449090
H         2.54384790470871    6.60963652646777   12.68638378367136
C         4.41588764386810    5.57733363170489   11.40049560757523
H         4.55208724480709    4.61925648004266   10.88974576217575
H         5.36005598774704    6.12419549428016   11.32060485949321
H         3.62237727289102    6.15315869178565   10.90720388194274
C         6.96805815892984    2.88593510757762   14.89470563164842
C         7.75455744886582    3.57164973318057   15.80781083668898
H         7.78157062798562    4.66319591663659   15.79730611726138
C         8.52143485223135    2.86466878195681   16.72019216096679
H         9.13859711915189    3.39621209641646   17.43101030419094
C         8.49967876639743    1.47997638779613   16.71612376848140
H         9.09679893157032    0.92921782689333   17.42845546173166
C         7.72187899951799    0.80039783384612   15.79484844757043
H         7.71036047909720   -0.28042918467761   15.78686158225457
C         6.95153282834882    1.50140858321240   14.87957738321388
H         6.34558194939105    0.95958929948342   14.15599338808989
C         4.08189939053729    2.19339936336836   16.32122045024573
C         4.88852714746254    2.57345372744360   17.39380526566875
H         5.33411355290600    3.56153627565198   17.39482136394286
C         5.12525291018973    1.69439560099902   18.43091339608866
H         5.75304943564217    1.99121229605554   19.25764025489060
C         4.56860564435993    0.42462832995666   18.39873505498192
H         4.76175381599190   -0.26861238469445   19.20371684559003
C         3.77518495432291    0.03993523318803   17.33146758050624
H         3.34860741611049   -0.95213677102448   17.30496953591410
C         3.53336126569130    0.91765463656350   16.28849301041372
H         2.92501949547354    0.61010038458054   15.44916330590531
C         2.90820126617330    2.55550746951543   13.70307004238957
C         3.51649402887972    2.11108915064833   12.53069790798910
H         4.59926365958603    2.24539937296606   12.40138564211095
C         2.75942648785760    1.50933504594867   11.54188773285379
H         3.23064234475644    1.16490160113629   10.63314752188670
C         1.39357655701644    1.35373568914843   11.71926605876801
H         0.80033879008506    0.88693474902482   10.94713486175882
C         0.78462858706230    1.79848066872949   12.88247695522717
H        -0.28067079130207    1.67747681082499   13.01472232178043
C         1.53681925300537    2.40001876358317   13.87548381450465
H         1.06595562876910    2.75237286775003   14.78401419315138

