51
CSD_code = SIXFIO | q = 1 | S = 0 | Stoichiometry = C23H25NPPd(1+) | MND = 5
Pd       11.96122100942878    1.72629524542739   -5.84093408018694
P        12.68594999253840   -0.13747950694492   -4.80428929493301
N        10.71776096097289    0.36470913718443   -7.00213482019442
C        11.72962135593404   -1.43504976616840   -5.65189337327685
C        11.84123844513040   -2.77711630342591   -5.29840669330289
H        12.53414943233087   -3.06366114654545   -4.52107400846156
C        11.07590141710272   -3.73011782229168   -5.94114647304851
H        11.16266955750528   -4.76960218008715   -5.66704990319688
C        10.19655766056789   -3.34443591098320   -6.94085478020711
H         9.59956983582515   -4.08434547323890   -7.45044291048910
C        10.07585983443121   -2.01184715687429   -7.29263271381318
H         9.38321270400785   -1.73942092612747   -8.07460605430327
C        10.83486731215126   -1.04191259987105   -6.64758070943353
C         9.32251956073291    0.81000095586630   -6.86196019872421
H         9.25598561355383    1.88399879785128   -7.05390007405682
H         8.98421162750544    0.60329674774357   -5.84307583468419
H         8.65623628926713    0.29517822948952   -7.56154884523811
C        11.21503963409280    0.57177651819344   -8.37413174542560
H        11.03544043232902    1.60571992008236   -8.68084993759911
H        10.71461401814653   -0.09144947654605   -9.08796646762120
H        12.29169210809932    0.36219050633484   -8.40055478626867
C        11.60860469229136    3.66662982705634   -6.76794944827994
H        12.37612352654117    3.57340074932905   -7.54332747473177
H        10.66280380544372    4.08557861990336   -7.09517342199812
C        12.00228197326218    3.82313483966453   -5.44531567740797
H        11.31075298344586    4.23502835785217   -4.71093371466609
C        13.19449025146891    3.18614109217161   -5.01621402818945
H        13.44700566161564    3.22324315255258   -3.95914103155703
H        14.05507304156968    3.17444164751067   -5.69321162498895
C        11.94659205378733   -0.14363572092115   -3.14428939162252
C        10.94949673665031    0.80423460161915   -2.91281239616225
C        10.30248108314751    0.84472851177775   -1.69200278064683
C        10.65075977437546   -0.05775402998599   -0.69824528239484
C        11.64150069304113   -0.99967548255105   -0.92557552961882
C        12.29043520169874   -1.04919216361157   -2.14681475204972
C        14.36608720888420   -0.78211322645489   -4.64046494854057
C        14.90221882694101   -1.64943853461669   -5.58867536344367
C        16.21299196079994   -2.07369320631043   -5.46561134253348
C        16.99442481036942   -1.62565099841423   -4.41233353947100
C        16.47007674778759   -0.74140055322794   -3.48167023329565
C        15.16189386368704   -0.31099237554782   -3.59727818469400
H        10.68698928890058    1.51941253294633   -3.70716606690785
H         9.53239443836041    1.57869029265040   -1.50906398679171
H        10.15080043187294   -0.02307806352359    0.25715041584640
H        11.91117718254708   -1.69718513262587   -0.14753203144164
H        13.06999175334552   -1.77718708586507   -2.32003608672155
H        14.29242613684680   -1.99318508488866   -6.41323816554051
H        16.62647926380802   -2.75327413815435   -6.19500419852200
H        18.01581438150540   -1.96077022452004   -4.32014986840039
H        17.08323312641524   -0.38608009097392   -2.66772569220576
H        14.74608029796190    0.38511409810743   -2.88046044854669

