56
CSD_code = SIXFAG | q = 0 | S = 0 | Stoichiometry = C27H25INPPd | MND = 4
Pd        4.51168342701555    3.64609751867527   -0.58403122837906
I         2.23188711695255    3.11166777211710    0.47144965291659
P         6.45703107948453    3.79388547321141   -1.67660086319053
N         3.73204309475430    4.26864389485661   -2.62730587429595
C         6.34714141912285    2.83922513789261   -3.22597703041962
C         7.37390865020795    1.98641441202504   -3.61656513090199
H         8.24998799657856    1.89057137200524   -2.99061956672159
C         7.29408665102658    1.26326137704955   -4.79379227526679
H         8.10096287014421    0.60233029356793   -5.07296580415185
C         6.18567222169775    1.39794853534092   -5.61350746365698
H         6.11792536377884    0.84005358925478   -6.53503807099632
C         5.16877782972458    2.25948545646481   -5.25147133930997
H         4.30633896377374    2.37105849574398   -5.89360222474996
C         5.21845752792325    2.97787417507158   -4.05559166390951
C         4.09737732150056    3.86504839508928   -3.77174154674887
H         3.53329029577532    4.17551302556933   -4.66201279541367
C         2.61824817197304    5.17031763085031   -2.50895846433396
H         1.78248420069241    4.60835719057279   -2.07121629823710
H         2.30583622136872    5.55724954516376   -3.49088408003903
C         2.98702935623201    6.31165286932174   -1.56206758100508
H         2.10261948962898    6.89357453990843   -1.31698879929647
H         3.73006042809308    6.96430348911024   -2.01965582989211
H         3.39843625727099    5.89346550253700   -0.62603628586433
C         5.41441159335708    3.10437695040834    1.10323342285341
C         5.48220737764929    1.75921170701508    1.43701362768722
H         4.94894924662877    1.01980107753063    0.84025315902153
C         6.20974173067814    1.35805881668973    2.54571736154831
H         6.25710423794250    0.31010068660798    2.80684083809849
C         6.86922366358276    2.29730959407078    3.31973230655267
H         7.43954779445462    1.98414028617117    4.18228980628699
C         6.78870911309638    3.63996412137129    2.99509683094428
H         7.29426969081957    4.37694418756515    3.60344719120867
C         6.06143121660843    4.04654102492106    1.88699860465143
H         5.99996900142374    5.10739125811373    1.64820037429177
C         6.84894693843622    5.46143423829674   -2.28743505140378
C         7.51165982089513    5.70048184991605   -3.48592047889116
H         7.82620950557276    4.87079395525811   -4.10469745086158
C         7.76379776862048    7.00228173533087   -3.88089787446465
H         8.27585565068113    7.18987699749194   -4.81338041868811
C         7.36220979869568    8.06440192773737   -3.08594741535414
H         7.56036048793235    9.07773673911926   -3.40213281916297
C         6.70495213159935    7.82954974879049   -1.88852954032847
H         6.39110982705479    8.65780802457435   -1.27023733367050
C         6.44620150718316    6.53032046884080   -1.49279891270433
H         5.92460601249620    6.32325184153385   -0.56130325377789
C         7.98836446602969    3.23901400813469   -0.87846900471484
C         9.03120086313419    4.10187844755671   -0.56490538743250
H         9.00562778223126    5.12831214955644   -0.90427952678188
C        10.10031427470490    3.64375257013806    0.18551419436761
H        10.90973075977327    4.31634022076371    0.42895557364299
C        10.12989899022472    2.33374105975445    0.63208182375478
H        10.96145352625929    1.98549154696358    1.22626401354238
C         9.08956116915696    1.47019523498343    0.32459862430462
H         9.10884999931659    0.45018746723660    0.67802095239452
C         8.01960608377362    1.92151004388097   -0.42102853281013
H         7.19293201529255    1.26100032227256   -0.65541514023114

