23
CSD_code = SIXMIY | q = 0 | S = 0 | Stoichiometry = C10H8Br2N2Pt | MND = 4
Pt       -0.72047465109898    5.50568810982904   13.09421418970497
Br        1.13453608226675    5.03583194091964   14.49849545201950
Br        0.71711546977620    6.80780069674320   11.72888937709889
N        -2.05562594865002    4.43635329554776   14.17970756137702
N        -2.37939927039611    5.81159509669047   11.97280889278929
C        -3.31128874831954    4.44173309759508   13.67651768995895
C        -4.34557083271530    3.76405972409089   14.32270678176453
H        -5.34201921905687    3.77986628182354   13.91402395012019
C        -4.09112795998769    3.07371689694122   15.49088621135551
H        -4.88290971657328    2.54681075681445   15.99969468921612
C        -2.79563041400931    3.07562998656032   15.99162037406209
H        -2.54437511927907    2.55181553553694   16.89888783883642
C        -1.81598231538202    3.76666150836077   15.30739366675414
H        -0.79989349976209    3.78411017273960   15.67710141109252
C        -3.48838299036729    5.19546926899483   12.44225808739627
C        -4.70406221526631    5.29338930814307   11.76476799725917
H        -5.57868192600733    4.79378016891010   12.14641245561451
C        -4.78502752766267    6.03071602500398   10.60038734339282
H        -5.71901503512150    6.11222561894116   10.06703592401245
C        -3.63820029131637    6.66155668987688   10.13571051132167
H        -3.64844231767777    7.25033606551735    9.23357431990088
C        -2.46478139958651    6.52476271246564   10.84955357323079
H        -1.55806015380695    7.00509104195399   10.50815170172125

