51
CSD_code = SIXMES | q = 1 | S = 0 | Stoichiometry = C13H31ClFeN5(1+) | MND = 6
Fe       -2.34239344814466   -7.88763441765148   -1.44656436956115
Cl       -0.32299306916006   -8.69545512542023   -1.27603044977657
N        -4.09136994078241   -7.34299631466552   -1.47409037523422
N        -1.94693698579629   -5.89480936146577   -1.46085684003750
N        -2.27679922425992   -7.68108329247532    0.59934866425818
H        -3.15755933703670   -7.47288718412150    1.06474688705193
H        -1.89250452051347   -8.51887405533511    1.02792754859032
N        -1.62673116287046   -7.56848756775107   -3.56009758992950
H        -0.93278152276477   -8.29944790004343   -3.40425807951715
H        -2.08841243211900   -7.76976659488089   -4.44079376252411
N        -3.24711607275841   -9.85635820076115   -1.56778721518419
C        -4.38846793169773   -5.94081350921531   -1.60052088595409
H        -5.20363602455732   -5.75901614398860   -2.30696627339765
H        -4.70933238287416   -5.55320944903652   -0.62685545318823
C        -3.11419920313661   -5.25844505551254   -2.08492935976391
H        -3.13508117722437   -4.18191059846997   -1.88474209258397
H        -3.05347730277561   -5.41089908664035   -3.15702101883059
C        -1.76588621174966   -5.41689921872350   -0.08014411307294
H        -1.03462432797280   -4.60449882443321   -0.03642517843833
H        -2.72018654311440   -5.03589816847752    0.28688155434683
C        -1.32994040280052   -6.57774788782456    0.80337242655775
H        -1.27768668512203   -6.26168019344639    1.85102785119511
H        -0.34729463674782   -6.93355455798831    0.49287218042369
C        -0.73541691649190   -5.68917899470641   -2.25889417557066
H        -0.48772012222988   -4.62374345976211   -2.34065565970657
H         0.07351424320615   -6.20673338575099   -1.74434718774039
C        -0.89581417457146   -6.29512072395828   -3.65657717742391
H         0.09990306430487   -6.43435365946018   -4.08973075181788
H        -1.43876236365177   -5.61219955233744   -4.31340900824537
C        -5.01330333239345   -8.19410809237149   -1.21255482211026
C        -4.55641832575278   -9.59839172735885   -0.95897640112650
H        -4.46239714726365   -9.72587888556088    0.12304238583453
H        -5.30799611020821  -10.31837752406224   -1.30244477823367
C        -6.46439402918261   -7.86799111232412   -1.07500931044071
H        -6.61606387950019   -7.08152468240132   -0.33502580775580
H        -7.03394887808444   -8.74231267606162   -0.77589766310878
H        -6.86446349045981   -7.50086819881615   -2.02108281643765
C        -4.18791104209893  -11.18650173357731   -3.55290669637114
H        -5.21990935368681  -11.17578446130563   -3.21237318018265
H        -3.73449370876964  -12.13225958547610   -3.27354317300148
H        -4.20274690651513  -11.13466910792661   -4.63788690574017
C        -3.38623972386367   -9.99284609933598   -3.02791207768267
H        -2.37564732891191  -10.06173144616594   -3.43141948181100
H        -3.84812405987797   -9.07257031143754   -3.38958781895110
C        -2.11373085192444  -10.96899270787488    0.40059294140873
H        -2.86521256573396  -10.62457597807308    1.10693038146029
H        -1.25009202201410  -10.31250809109353    0.41343620833608
H        -1.78436711651568  -11.95278747712497    0.72387218417015
C        -2.65182574117324  -11.08515083186927   -1.01730244325909
H        -1.81491354980788  -11.35060364058050   -1.66367526525877
H        -3.39079402084463  -11.89466314489977   -1.05015555466101

