56
CSD_code = SIXNUJ | q = 1 | S = 0 | Stoichiometry = C18H34N2PPd(1+) | MND = 4
Pd       -3.46588429889821    9.64692561707614   15.87068857636372
P        -4.46806802753204   11.29339256189610   14.49051687364945
N        -3.08571512961846    8.06488513436131   14.44708117941964
H        -3.79895986713243    7.34926459395131   14.61689762378816
H        -3.10947116361355    8.29746502829403   13.45265566865987
N        -3.50381153142550   10.54427303565597   17.84569064774260
H        -2.60383429467014   11.01868396138683   17.95965843088423
H        -4.24096419162128   11.22599692229718   18.03569383132720
C        -1.75249749392052    7.36976353241666   16.31189348870823
C        -1.05407091162547    6.44405660070909   17.07506967034691
H        -0.43853906606343    5.69360237547343   16.60396241349766
C        -1.15116625125381    6.48920060398626   18.45770532254300
H        -0.60529880849283    5.76921378161144   19.04726200455428
C        -1.93326156205192    7.43661647549306   19.10116803910365
H        -1.98882455022389    7.44574876799599   20.17864215823179
C        -2.63789515744002    8.36451312589261   18.34698484559227
C        -2.53211398126551    8.30966182737940   16.96725037997223
C        -1.74109497609680    7.52055452739808   14.80204412434644
C        -0.72728665303929    8.61011773717478   14.43116356028753
H        -1.03343874677089    9.56091560928948   14.89839060864401
H        -0.67494334037069    8.73999323121006   13.35146332023644
H         0.26141267004415    8.34751062650265   14.79682950633804
C        -1.47549544989742    6.22476674841028   14.04264864286523
H        -1.59150834716293    6.37857037727826   12.97116948882748
H        -2.16301544809050    5.44382746238539   14.36201042080172
H        -0.46111086700590    5.88176480960653   14.22224963808689
C        -3.59250150288790    9.43227729814162   18.84250186266904
C        -3.28366456985135    9.95754062372449   20.24032119129497
H        -2.25033993853077   10.29309720227289   20.30612356503348
H        -3.43614843319133    9.17657719555136   20.97903199227897
H        -3.94057960205647   10.78821285272565   20.49252574736790
C        -5.01552982826293    8.87130839407510   18.75213830416193
H        -5.74840698000915    9.61140144557588   19.06889911648479
H        -5.11514439962241    7.99376812986529   19.38446983182049
H        -5.21749264755438    8.57206823384645   17.71271413673114
C        -3.34351339824239   12.72745810027408   14.17842398466851
H        -2.80439685087547   12.53406339844428   13.24677831650486
H        -3.91962118867731   13.64833079089812   14.06277041561817
C        -2.34926398096077   12.85393709794474   15.33050559831010
H        -1.57214610706433   13.57721406393420   15.09533357653028
H        -1.86906042852261   11.88291694404795   15.52116623996977
H        -2.85179414065430   13.18340486799143   16.23937687237073
C        -5.91164044109149   12.05977995565589   15.34550514664059
H        -5.52164112992934   12.60880443588098   16.20893985700954
H        -6.42086689599842   12.77551416041416   14.69834340220579
C        -6.85229486746867   10.94918187724756   15.80460417206578
H        -7.57814996673724   11.31751960223329   16.52567144395125
H        -6.27331166954679   10.13901462839593   16.26887788628189
H        -7.39775950074577   10.53219237789769   14.96078672121746
C        -5.10446526516905   10.89540237098571   12.79867133506114
H        -4.24181991537898   10.52509384594367   12.23323216619429
H        -5.80611959868560   10.06130134656248   12.90340239287049
C        -5.76004308275567   12.04110272831384   12.03786678299242
H        -6.01479923622080   11.70933861331222   11.03368673112577
H        -5.08957641007881   12.89219435648890   11.95064317611128
H        -6.67765057799238   12.36639798622843   12.52019756965165

