47
CSD_code = SIXPIZ | q = 1 | S = 0 | Stoichiometry = C18H24AgN4(1+) | MND = 4
Ag        0.71203466206849    9.95703198973064   13.40345465607199
C        -0.00963303800751    7.28060782785291   11.70769330587553
H        -0.21326082886210    8.03555481972155   10.96021500187385
C         1.16199673620003   13.08606554253530   13.55199436379671
C        -0.30352113582790   13.94527986818123   11.41642741139002
H        -0.89002100666312   14.23830324030310   10.56123381750386
C        -0.08351091659525    5.93628952286227   11.38940404377378
H        -0.34283559305742    5.62687105003710   10.39026525553358
C        -0.12124853162837   12.60660223233365   11.71347362516214
H        -0.56252607144617   11.83949161038995   11.09152220517425
C         2.72553007329458    8.54024803652189   17.48634262169755
H         2.32858820446953    7.54386519132488   17.68688097499460
H         3.71511811192909    8.42607015663805   17.03558283684104
C         0.28494973811248   14.89017915694375   12.24269799382689
H         0.16786122793568   15.94508322893843   12.04898797721433
N         0.30061059300481    7.72526620471343   12.92323259889776
N         0.59477785697422   12.18164760760093   12.75209804573151
C         1.02573702945702   14.45099326963818   13.32645037239468
H         1.49741994932927   15.15720012035614   13.99174697394358
C         2.00468123731296   12.58578102816850   14.69853701754459
H         2.99037067020893   12.32354584610152   14.29740023874866
H         2.14123960756812   13.40415861606199   15.41792826672992
C         0.86269571229355    7.36111003448529   15.26499955002057
H        -0.08903724947388    7.63297436528202   15.73551800925524
H         1.31342908605907    6.55417254909658   15.85777267401841
C         1.80993647942302    9.27112460593706   16.49665290651196
H         0.80134416795239    9.35030040217587   16.91820751754424
C         2.48130908415532   11.44865130430160   17.57101134661507
H         1.49262426921987   11.56071178514496   18.02443154501405
H         2.88371333754896   12.44603066821182   17.38707682484485
N         1.43995591501738   11.38584814336988   15.30867696584775
H         0.60191533395670   11.65512850412112   15.82245141570692
C         0.55789757125038    6.83628397128907   13.88437575433975
C         0.18305017012753    5.00760938340380   12.38342653395643
H         0.13933989245953    3.94917826937360   12.17880009471228
C         2.33627171468978   10.69668470396283   16.24232147972785
H         3.31510911824666   10.61749844573773   15.75560615006883
C         0.50991420560565    5.46754570865954   13.64766003618670
H         0.72371413696556    4.77408470173722   14.44598095520919
C         2.85661115590156    9.30523484183661   18.79896035643174
H         3.52500756801948    8.76631367545172   19.47073738567790
H         1.87995206008675    9.37248621490110   19.28219822753546
N         1.69364068667621    8.56090093212836   15.21912332626555
H         2.63121235740059    8.28689574921744   14.92822933772074
C         3.39635320910136   10.70528427965636   18.53814879953199
H         4.40007872384495   10.63872633822330   18.11376834264474
H         3.46580271769521   11.25938425533985   19.47449485989085

