97
CSD_code = SIXQOI | q = 0 | S = 0 | Stoichiometry = C47H45FeN3O | MND = 4
Fe       -0.40997110756846   25.16649473125664    3.15647718117710
O        -0.44801534226169   23.14175645952786    4.01107993392483
N         1.20596434938943   26.01171235917874    3.84925057108297
N        -0.86856187651893   26.99035958899979    2.99587491667390
N        -2.18428705481487   24.87723733287168    2.39823842431123
C         2.43542643914926   25.61862591460053    4.23561386822229
C         3.15458717222541   26.71603515775308    4.70202534999068
H         4.16050882594337   26.70323603404115    5.07555857842076
C         2.32692884080952   27.84078175688446    4.58554728499109
C         1.12356258762757   27.36714877062653    4.04121798273607
C        -0.08019639953487   27.94610851523660    3.52290004401072
C        -0.47714855870780   29.28359726997124    3.48344018609710
H         0.17682394971296   30.05540543316004    3.85225877105082
C        -1.72613416227921   29.58112118916832    2.96275824193784
H        -2.06071631284054   30.60795448202776    2.93307668409806
C        -2.55992344750645   28.57762116188705    2.50022344059596
H        -3.55051087147140   28.79773683074474    2.14039806081005
C        -2.09618949728613   27.25829497400583    2.51056534215139
C        -2.80061636820197   26.07468802535225    2.11378215989444
C        -4.08156406540376   25.83032168041237    1.59295403069530
C        -4.23321910096678   24.43865755736750    1.59648246313945
H        -5.08144719489891   23.88854281779094    1.23587923486495
C        -3.04549552030405   23.89308183837504    2.07535710377685
C         2.67588603951804   29.19266086833909    5.00004452868628
C         1.80368577588025   29.95764712078363    5.77349874734573
H         0.85479553305197   29.53521315797725    6.07308732214690
C         2.15407481391998   31.23244324216292    6.17642215290335
H         1.46735972191619   31.81448928471751    6.77514312954316
C         3.38319863571482   31.76355288115617    5.82135874673700
H         3.65455366195056   32.76116245136900    6.13487562877812
C         4.26510019239494   31.00554600513512    5.06890646918458
H         5.22831379292873   31.41261660047401    4.79511519634613
C         3.91693516373576   29.73087468574298    4.66443280382562
H         4.60258191396627   29.14291924716742    4.07132879566039
C        -5.07191925209535   26.77672472949320    1.09692007941974
C        -4.71972712742873   27.78732472231718    0.20280846409096
H        -3.69152602105660   27.87092800484933   -0.12001311124553
C        -5.67415801377787   28.66140238912227   -0.28172999560005
H        -5.38702169082410   29.44026769468854   -0.97421410463174
C        -6.99694592085639   28.53936333995125    0.11196178403487
H        -7.74132506773624   29.22517414485607   -0.26587635471399
C        -7.36086236492205   27.52904466616716    0.98654999559229
H        -8.39266062982010   27.42550074080257    1.29194979032302
C        -6.40838127280160   26.65307732994279    1.47195427936554
H        -6.69211857377888   25.86816409672508    2.15853516270409
C         2.91527056466200   24.24889846727792    4.04435817127199
C         2.89124826557771   23.69259044936393    2.75636933233782
C         3.38491383302729   22.41410998314608    2.55921965674237
H         3.37634204093018   21.98797520582943    1.56566842052840
C         3.90273679278093   21.66432695150964    3.60940936893056
C         3.91514273034467   22.22450797901190    4.87655014585168
H         4.31132545315322   21.65483950196627    5.70625115900839
C         3.42973916322115   23.50544510349152    5.10932104702379
C         2.38375896473109   24.49044098192088    1.59108921970375
H         1.31092643835537   24.72891363710172    1.70809007445060
H         2.52101569068649   23.94331963213933    0.66173881713804
H         2.91585712504478   25.43874179217692    1.52888833404841
C         4.41710192317021   20.27755136240073    3.36535880308935
H         4.87629868229575   19.86869490326203    4.26184481229873
H         5.15582295795503   20.27961935800056    2.56550799019863
H         3.60150145370240   19.62010692028066    3.06373111342839
C         3.45572740091767   24.06306793193433    6.50166601916497
H         3.33824891335912   23.26823727867518    7.23654840795601
H         2.67020554804752   24.80289991237104    6.63729344949529
H         4.40992302058421   24.55384379286680    6.69203420687033
C        -2.71123579489114   22.46645134491123    2.16793182967304
C        -1.68849642509875   21.94711178522189    1.36735692481161
C        -1.39512596452178   20.59360463823545    1.42411101891112
H        -0.61020137019956   20.19561015385020    0.79458471249493
C        -2.09123984552201   19.73673774345913    2.26558228021948
C        -3.10316879725896   20.26537260898384    3.05289747275307
H        -3.65728625479012   19.60936348545518    3.71130929866209
C        -3.42847833601140   21.61378386936164    3.01038389869419
C        -0.92984229276950   22.84994706281817    0.44270319917002
H        -1.61182852173450   23.32090496972089   -0.26447106496538
H        -0.17321448956572   22.29714314763737   -0.10865438070545
H        -0.44612864448596   23.64956039798288    1.01532749942798
C        -1.76121483700563   18.27531039589673    2.33377925372302
H        -1.43981264779676   18.00262931678065    3.33904029412760
H        -0.96603724537966   18.02316389704388    1.63659366468088
H        -2.63747607816375   17.67549308054527    2.09137320149023
C        -4.54868582231885   22.12658047091479    3.86830296963740
H        -5.50460982609596   21.94671738501095    3.37596473684169
H        -4.45727045496767   23.19772805430979    4.03257852967126
H        -4.56785407136700   21.61173505954736    4.82795384018677
C        -1.09699893428474   23.48220584353257    5.23976156724172
H        -2.17601168854648   23.33734190646229    5.10508035065643
H        -0.89875516802157   24.54582453601206    5.46790515433382
C        -0.54407728670235   22.52907312523177    6.29440333222639
H         0.38801966029519   22.91594463672837    6.70663655934891
H        -1.24990369356531   22.35499362654624    7.10282793664838
C        -0.26869435019415   21.28737080983320    5.45021754750157
H         0.44702792136165   20.60904196441502    5.90677002487098
H        -1.19645715731502   20.75256014011866    5.24495609253766
C         0.27123137356126   21.91709407511144    4.17162328128011
H         1.33759667859493   22.13407080441790    4.26897388394938
H         0.09837880814061   21.30978123409376    3.28193717514626

