169
CSD_code = SIXREZ | q = 0 | S = 0 | Stoichiometry = C86H76FeN6 | MND = 4
Fe       16.62887664552811    8.42870376271871   18.41966610738200
N        18.01037626285796    7.03597806885761   18.54974950777648
N        18.29703785291852    9.34263206624155   17.82958301881794
N        16.78282153506417   11.09297628996488   19.48236284922053
H        17.07859062831530   10.28458505479225   20.01349262123831
N        14.88125753667411    8.94917176228699   18.33983154705475
N        16.03433353846409    8.42249655118939   20.76118609971832
N        18.83835232284395    8.66547758299612   20.92530227834822
H        18.51283620529577    8.40929400277825   20.00013307741413
C        18.04232760651934    5.78550766206729   19.05349991669346
C        19.16570858128115    5.12182557704097   18.56544975981101
H        19.43097631031331    4.10199131346643   18.77092896918670
C        19.85258356634569    6.00323754117589   17.71568570820450
C        19.11680321222965    7.20052582366783   17.74879752009166
C        19.29261503656278    8.55744263827891   17.33857314507836
C        20.32468829048296    9.10843270021750   16.57622818990571
H        21.12235112392821    8.47958192943611   16.22190354039666
C        20.30905542109670   10.46394131668700   16.31804886326857
H        21.09668307356479   10.91078717262590   15.73091980378283
C        19.29326143137878   11.25773998648445   16.82885160129752
H        19.27875487847392   12.32234686754025   16.66633408744078
C        18.29178987991697   10.66584708028270   17.59575730113451
C        17.24427085476228   11.44193209255955   18.23816637544144
C        16.59765999460272   12.62038199262833   17.87352127420025
C        15.73277456225592   12.95394337482822   18.94082186592468
H        15.08017315790831   13.80363273469553   18.97978232601446
C        15.87198885852482   11.99867562135161   19.92155482410567
C        21.03823507877182    5.68990182677034   16.93306023586484
C        22.07204080246651    4.92710493508651   17.47446303531249
H        21.99022502916495    4.56731094189185   18.48879994796218
C        23.20012119996588    4.63767695578453   16.73107473174715
H        23.99790460223736    4.05463156900628   17.16962781310389
C        23.31387901473271    5.09208751413282   15.42759823885411
H        24.19910801626148    4.87070476828315   14.84934308161977
C        22.27633441084750    5.81688537017414   14.86470801903198
H        22.34614829467628    6.15141851609454   13.83901297523474
C        21.14744105064251    6.10810092140898   15.60658667612974
H        20.32473904256168    6.64167576545079   15.15205001878095
C        16.71901889394659   13.37477390774458   16.63210701433524
C        16.96673615712003   12.73927567257907   15.41648873262305
H        17.05203844415004   11.66402713208290   15.38586480061350
C        17.09065106144137   13.47393731031329   14.25345327337232
H        17.29703547081261   12.96720742228745   13.32296749886946
C        16.94789963420668   14.85138328248838   14.27548392783570
H        17.04238446773521   15.42308993171399   13.36374214748879
C        16.68165306646395   15.49163020589364   15.47409881584199
H        16.56583337808556   16.56575658585721   15.49907510866124
C        16.57157045208564   14.76125480098363   16.64205065203770
H        16.38558578925649   15.26880639317413   17.57702552133434
C        17.00645891554643    5.27787895464315   19.97116705301814
C        17.29711101541388    5.02447990631050   21.31398309130081
C        16.29075226859243    4.57554082121646   22.15704823698250
H        16.51927807945277    4.40528914834640   23.20008354127836
C        15.00678283164586    4.33778195249267   21.69594057546150
C        14.74351985369024    4.55307185969669   20.35122130599693
H        13.75900402088415    4.33267106513331   19.96145552524461
C        15.71594826206011    5.03572762328825   19.49232508960264
C        18.67755877818700    5.22478729854127   21.86086621574145
H        18.64674065132121    5.37025704966093   22.93825420166038
H        19.15233086804322    6.08562827286304   21.40292747392337
H        19.29298678994575    4.34911921572212   21.65259411167535
C        13.91669783826921    3.87845673459304   22.61601469936031
H        13.36492439827429    3.04911698462194   22.17659351396018
H        13.21331771007828    4.69314977927096   22.79156122463105
H        14.32180950002842    3.56263877530916   23.57404503586851
C        15.37452017665685    5.30795043907921   18.05934534752534
H        14.49043687549389    4.75112785732011   17.75692216526338
H        16.20391921743568    5.04919046326056   17.40424906570342
H        15.16261360775198    6.37560454356943   17.94294657070819
C        15.28571649672891   11.91912795909131   21.26700624817506
C        16.11141807474784   12.09395955912550   22.38240431575354
C        15.55478911799278   12.05316247416091   23.65166905934811
H        16.18704559691079   12.23858600461785   24.50882148010837
C        14.20690901693011   11.79080735517280   23.84531960962653
C        13.40314616594213   11.61857902625392   22.72938519502927
H        12.34778937514053   11.42500647402287   22.86055550424270
C        13.91638447126722   11.70442621983068   21.44438133299111
C        17.58420407314967   12.33813343318858   22.23363550731708
H        17.96333782458526   12.89098768217968   23.09018087368926
H        17.80215748531923   12.90044155306579   21.32853334607131
H        18.12077677669129   11.38996096466391   22.19044728672815
C        13.64049105777729   11.67811358137815   25.22773521793368
H        14.20156829091757   12.29196340829475   25.92897562700760
H        13.69616069698936   10.64175780254680   25.56379274875211
H        12.59660708949903   11.98235176712098   25.24736044987341
C        12.99412178466873   11.58273460697074   20.27196264302356
H        12.10786643491623   11.01321512050017   20.54077239722882
H        13.48858813847137   11.09399520740217   19.43918723576498
H        12.67616238127234   12.57293961340518   19.94415092593986
C        14.06424703539261    9.20451179505510   17.27919118102337
C        12.75996037518323    8.90471667153050   17.62859975942951
H        11.90076734681011    8.96964782713492   16.98793425651414
C        12.76585748746331    8.42457866025573   18.95401278578754
C        14.09485856700710    8.49941503797621   19.38683628232537
C        14.69403420468348    8.28786969670133   20.68327762854049
C        13.92374763729424    8.01693068705431   21.81844171695742
H        12.84991189506562    8.01514421802961   21.75583000451733
C        14.56272194434801    7.73032108578958   23.00658433867594
H        13.99187038069378    7.45049757014860   23.88009215521426
C        15.93889400317629    7.81556620063426   23.07237561626158
H        16.46737159501813    7.57128375919886   23.97700916514623
C        16.64248946745375    8.24949156221089   21.94596692891600
C        18.05545906575499    8.55139130576300   22.04323895119866
C        18.88320108214759    8.77480355646791   23.14551937643530
C        20.18164139649576    9.00304940740163   22.63921251001496
H        21.05105191757574    9.23074303660756   23.22452387618830
C        20.12642682576774    8.92078981341497   21.26759315935766
C        11.56863095997752    7.90707506746182   19.60765551948621
C        10.37448796652826    8.62225085380467   19.54101066561722
H        10.36052870154404    9.58381119057239   19.04773780042868
C         9.21916319007787    8.11816187959589   20.10921569656319
H         8.30188156167112    8.68729709226357   20.05627769103886
C         9.23324944529777    6.88677911921841   20.74245794380693
H         8.32957813386645    6.49252934930268   21.18371270690265
C        10.41172606342507    6.15995005757312   20.80159201191440
H        10.42617069524728    5.19344122313948   21.28539621841072
C        11.56842847682999    6.66338924563908   20.23869040788991
H        12.48689812603751    6.09749092919514   20.27757982965785
C        18.57901115969903    8.84606215220577   24.57285537519247
C        19.43467381077997    8.23883528014157   25.48968269947916
H        20.28350675919434    7.67594351808226   25.12899820888511
C        19.19624864019860    8.33687936669792   26.84805606351497
H        19.86411008183368    7.85373897622516   27.54685135697621
C        18.10567291419107    9.05131493880679   27.31435390157688
H        17.92183023836665    9.13026682445846   28.37585222984487
C        17.25293177182917    9.66481890225186   26.41111973998443
H        16.40298419976611   10.22890490744155   26.76787301260041
C        17.48575735756878    9.56395639883950   25.05306346053790
H        16.82056252619562   10.04242747157424   24.35105959175445
C        14.48866422202262    9.77093998153707   15.98441013351295
C        15.29984536688370    9.04885448056548   15.10253583647540
C        15.56522986983587    9.55565476353038   13.83914114106478
H        16.18318454723847    8.98227795728774   13.16157429346446
C        15.03580287919304   10.76435420427361   13.41542306320801
C        14.26621229138199   11.48982927258387   14.31130999967306
H        13.86915883953340   12.44875535977698   14.00940990021797
C        13.99100662750201   11.01893479615777   15.58538828770229
C        15.84826659431501    7.70743973341791   15.48237543608864
H        16.52853784567401    7.78883433566934   16.34139179390941
H        16.40619211525301    7.27161408157639   14.65729874837885
H        15.03684889327136    7.03147304734827   15.74680343172519
C        15.26699056789394   11.25569424176120   12.01880221904841
H        15.14029082601213   12.33402287971776   11.96087876521641
H        14.54802294422813   10.79382016114194   11.34085332692007
H        16.26494671355374   10.99314068820782   11.67326397721654
C        13.19198506276843   11.87487702785450   16.52081434230304
H        13.77786751427134   12.09090426002550   17.41219157273695
H        12.27645740744347   11.37723769360557   16.83168290066244
H        12.93185276144937   12.81629303560467   16.04294884066686
C        21.18793294101301    9.08107405263833   20.26009577094535
C        21.39818065872765   10.32899318028768   19.67020226777554
C        22.37324226752490   10.46037607447551   18.69405731867529
H        22.53687244774886   11.42822062989130   18.24107549464046
C        23.13463255058769    9.37644199450539   18.28362347346171
C        22.94123950139833    8.15476061236296   18.91035529988285
H        23.54345605842528    7.30724450974394   18.61512134755585
C        21.99119521247077    7.99528809597574   19.90628247747365
C        20.59113438861809   11.51506635262596   20.10612325629775
H        20.66663942292762   11.64734508797916   21.18452700944423
H        19.54003509376972   11.37949141759802   19.85978962374796
H        20.94284624435659   12.41949134187404   19.61630913009294
C        24.16666977616614    9.51373855332272   17.20566662850855
H        24.02157708030556   10.43120458424979   16.64068286125549
H        24.11989922228025    8.66561600750833   16.52461095256041
H        25.16567574968935    9.53575451684749   17.64148642763694
C        21.83518310832910    6.67135913122118   20.58770352055891
H        21.02593955616141    6.10912127871737   20.12345005065109
H        21.59920534607017    6.80331407584464   21.64126184763668
H        22.74995074188686    6.09052101089532   20.49920991130829

