78
CSD_code = SIXYON | q = 0 | S = 0 | Stoichiometry = C35H35MoO4PS2 | MND = 6
Mo        2.56845519605416    7.27897032658680   12.43912416767724
S         2.64731606904147    9.11409334104550   14.11401293158569
S         4.98877739406039    7.70393152299874   11.89796261553679
P         3.58443425469477    6.00452413302828   14.16285463076105
O         6.78390507320052    9.97704459088191   15.40730990411467
O         2.52123471132174    4.87206364608555   10.53285633647962
O        -0.27596618865145    6.35004288424289   13.10534784546559
O         1.10632663623487    8.99698133709841   10.34824791443168
C         4.12095637573388    8.94045644306434   15.16218077441187
H         4.41040304134922    9.96183582794219   15.41875332016527
H         3.75041410090232    8.44232664657232   16.06269444114303
C         5.79382045098445    8.61842769388902   13.25060214576626
H         6.86497226772132    8.42993566918137   13.13319578963065
H         5.61665681521809    9.68500241620785   13.12018925313827
C         5.22137980757919    6.65648570320836   14.76349464831778
H         5.34412351718211    6.35641125224198   15.81026480571340
H         6.01776051001773    6.18366434450108   14.18015018617954
C         5.36047927060193    8.18508495831568   14.65461683460937
C         6.50309497607534    8.61246171582931   15.60532958760261
H         6.20211614631310    8.43563080113334   16.65037283512537
H         7.40330769549042    8.00798655257930   15.40704071956199
C         5.00817467922898    4.12034385297719   12.71926879456357
H         5.59928789632151    4.96098896515333   12.37626437594046
C         5.24007610337336    2.86209134919682   12.19833169747891
H         6.02897705930602    2.71622751194447   11.47460913768333
C         4.45136293095417    1.79211200650399   12.58939399812709
H         4.63061284653787    0.80982007803154   12.17789630498078
C         3.41753465837756    1.99003575256778   13.48874454996336
H         2.78356220247816    1.16334537528407   13.77457976699092
C         3.18351549454170    3.24728365277355   14.01533759489654
H         2.36074893761232    3.40375332199205   14.69930673557124
C         3.99735211175463    4.31762735066363   13.65721436912856
C         1.59780419984615    6.44804330454033   16.05915395372328
H         1.17630276478709    7.11716927811946   15.31935719841998
C         0.98050196042519    6.28327691700910   17.28787868974190
H         0.07226103794886    6.82398536655440   17.50906623864139
C         1.52378392685353    5.42421280292974   18.22731942150779
H         1.04036214753878    5.29142455614621   19.18406668876284
C         2.68894173131068    4.72868960517637   17.93970054592284
H         3.11077284929916    4.05429618086451   18.67116599841098
C         3.30940179543556    4.89355472622945   16.71674042770561
H         4.21238137926105    4.34193976420143   16.48633789867408
C         2.76430815705371    5.75501324968946   15.76544722845143
C         2.92965712474768   10.72228815229656   13.27256293717502
H         3.75425389425338   10.62803036170707   12.57031299390867
H         2.00045081997320   10.86508307720216   12.71748051426761
C         2.09794553199416   12.25010296404421   15.06013941969958
H         1.11957485584458   11.81185373809065   14.92627943106502
C         2.29959181410862   13.23267874280115   16.01070122300296
H         1.47335252892322   13.57071088665739   16.61844387089959
C         3.55948324528476   13.78299645985387   16.18495305005087
H         3.71712961258289   14.55145917190417   16.92725059430213
C         4.61513546254769   13.34455840611706   15.40499553856772
H         5.59977412835080   13.76854906540301   15.53811546489811
C         4.41483080447538   12.36011239050272   14.45289737213514
H         5.24474630881668   12.02272949261974   13.84877672749996
C         3.15222658049932   11.80896414222698   14.26660151620234
C         5.63288542864188    8.66982111155742   10.46538406292343
H         6.71899195962702    8.58480109775018   10.52735457919494
H         5.26226778887086    8.10647017161013    9.60910408945106
C         5.95347200988804   11.09527338343449   11.00329620463260
H         6.91942381079912   10.85837756794704   11.42940746065320
C         5.50023249033365   12.40329397489033   11.01181062835017
H         6.10719040824597   13.17913434749534   11.45565534643885
C         4.27289165780084   12.71770869535135   10.45275493143301
H         3.91817352255212   13.73723594569890   10.46925445969349
C         3.51108999929932   11.72360545526084    9.86069482072389
H         2.56140090307775   11.96394269978500    9.40760096812374
C         3.96453412555024   10.41701755601852    9.84573330276728
H         3.37922191823214    9.64410998879840    9.37107970186603
C         5.18244699306071   10.08573478832526   10.43128114382067
C         2.55816557705601    5.78323358898398   11.22202033375540
C         0.78390041021670    6.73177989308218   12.91018642212213
C         1.71619107514148    8.38689174291292   11.09810438875168
C         7.74086535512068   10.48108032196876   16.30336320131266
H         7.86920419516984   11.53319925124521   16.05899110743188
H         8.69971920587045    9.95932947529795   16.19658223746655
H         7.40078346175383   10.38494511610464   17.34144665283084

