28
CSD_code = SIYCOU | q = 0 | S = 0 | Stoichiometry = C13H10MoO2S2 | MND = 9
Mo        1.53590954973308    1.46748381146788    8.27233416706815
S         0.94998856846957    3.60626223030872    7.04842937388456
S         0.57593344503046    3.22632030523904    9.82233225535385
O         4.23867937447931    2.08404869841151    6.92759839309585
O         3.77060852521547    1.61062114877974   10.38884730795705
C         3.22078031728022    1.86486423093199    7.40715038391419
C         2.92174790494999    1.56227542071704    9.62002408570113
C         0.27140471025395    4.21735822180667    8.47890833686818
C        -0.43710116813298    5.40241418216990    8.54521018372821
C        -1.06076587708833    6.44181644098620    8.61856224405591
C        -1.77806170673387    7.65075264889353    8.66947710908529
C        -1.92834934560234    8.37522506330740    7.36481208157627
H        -2.49772861779509    9.29085948691373    7.50003681195109
H        -2.43732883604743    7.74128078734236    6.63988423765972
H        -0.94789472662546    8.62060382511775    6.95879910978201
C        -2.27734880900656    8.09370491660369    9.82676108697447
H        -2.14672812294101    7.54567147882991   10.74379336471466
H        -2.82709499190582    9.01755513334722    9.88092436963449
C        -0.54231168421887    0.44950240690883    8.58213307111065
H        -1.38247099885473    0.80363254498670    9.16724124432462
C        -0.36579699994793    0.64990230973081    7.19806122705358
H        -1.04990250235299    1.18088810221163    6.54704571523835
C         0.75105023335786   -0.10140839688244    6.77990096706504
H         1.05236061328056   -0.26991055054135    5.75437177786017
C         1.27448500618399   -0.77725223973912    7.91850455628536
H         2.01138138411260   -1.57255343172691    7.89780461437600
C         0.46383262301491   -0.42665526140353    9.03527241496738
H         0.51132213188182   -0.88296351472955   10.01527950873531

