29
CSD_code = SIYFIP | q = 0 | S = 0 | Stoichiometry = C9H13N2O3STc | MND = 5
Tc       -1.02624086567055    1.59541737218337    2.95023238131116
S        -1.38644007774982    3.43872227086515    4.29779477337661
O        -2.50649438727426    1.10211571226538    2.44885125627524
O        -0.57929303861995    0.69992333757070    6.92657587919968
O        -0.18726479425445    2.90436973481551    1.66031766287102
N        -0.58615687458472    0.76924271507268    4.65594680968209
N         0.46598577357521    0.30938580936408    2.39995157961387
C        -1.65732633256322    2.56013630998742    5.86433101084750
C        -0.89311350432918    1.25353907096318    5.89104626591707
C         0.21392561879181   -0.44605792136347    4.68113860256239
C         0.47172402648559   -0.87766544846436    3.24218158065174
C         1.14144580330498    0.31276431581625    1.27206753412825
C         1.22190047964208    1.44606561829429    0.44860267612908
C         0.59758148393228    2.65876414610114    0.68798222762182
C         0.84184553882852    3.80237355003426   -0.26184295017348
C         1.90298391402580   -0.90378137937528    0.82392446053385
H         1.83680109713812    1.37290429622512   -0.43420799786284
H        -2.72546086965794    2.35772102364724    5.95904255018204
H        -1.33950592668538    3.19545202160393    6.69034237200029
H        -0.30938355441342   -1.22399059728134    5.24640284856302
H         1.15476804122476   -0.23208522002490    5.20462291251719
H         1.42183355129974   -1.41340770190045    3.18743134488611
H        -0.33157651375849   -1.54158883976378    2.89951377045358
H         0.59417987666464    4.73967695401668    0.22853925469890
H         1.87215844300735    3.81749783824068   -0.60476482208357
H         0.19011564692712    3.68690927604695   -1.12660102268108
H         2.29222003983885   -0.75729805165106   -0.17889017457877
H         2.74311618359046   -1.09949730332585    1.49051117295273
H         1.25507122128396   -1.77860890996211    0.82535604040330

