40
CSD_code = SIYFUB | q = 1 | S = 0 | Stoichiometry = C16H20NO2Ti(1+) | MND = 13
Ti        4.84583110319937    4.84481835525304    4.31101440898816
C         7.94106037109182    4.78021490732455    3.91661312041586
C         7.89800179710376    5.32964120663123    2.69510294421316
C         7.04739307275213    6.51150285948960    2.72004717729513
C         6.52071516748625    6.67426291945179    3.95324913156185
C         7.10745594250511    5.59988708742882    4.87350395962171
C         2.69595225992021    4.16229788157528    4.68648432755448
C         2.61026636448525    5.15882939567852    3.69304473788342
C         3.12840704224713    6.36610552266889    4.22880574893535
C         3.48193621948700    6.12616371770809    5.58079247435089
C         3.24118798026726    4.75804171191484    5.86095349855655
N         5.01911950555182    4.35765471720270    2.47552583805756
O         5.19794209543570    3.36561819058227    3.38548110105269
O         6.09401504381412    4.88685429828753    5.49244676326406
C         5.09780927444198    4.16462342612135    1.21727563527116
C         4.80457299465478    5.30596562490289    0.30242287007046
C         3.63289475408352    4.91335257618208   -0.61374464843590
C         3.93469898677997    3.60464852906218   -1.33576193917007
C         4.17857482483140    2.48304214411871   -0.33247150915821
C         5.35088712196562    2.83335047433550    0.59797163672381
H         8.45166374968970    3.88530304471697    4.23015831068432
H         8.41872925741445    4.98980653187726    1.81705205374365
H         6.92404238679458    7.17272012342159    1.87542840129114
H         5.98865795075841    7.54616378410910    4.32737235542388
H         7.76176566778172    6.06726295438515    5.63341963590475
H         2.30383279029591    3.15364077918226    4.61514710761158
H         2.12961554521803    5.05158235191153    2.72890073134095
H         3.06110836013221    7.34155738309696    3.75509672002442
H         3.77189008491823    6.87445042844013    6.30882524197105
H         3.31312178552040    4.28793432482400    6.83483451245587
H         4.56344372387323    6.20455640897945    0.88085409331777
H         5.68015315350645    5.50410828871368   -0.31974939914314
H         2.72777047427371    4.79992194938908   -0.01368333555101
H         3.45984054955494    5.71226549063332   -1.33447931271482
H         4.81302779752327    3.72898856727639   -1.97165318388724
H         3.09389893778520    3.34186628720609   -1.97800790077941
H         3.28003680280480    2.32148634338727    0.26645253962122
H         4.40583943671708    1.55300247595993   -0.85261799153897
H         6.26829779276544    2.88428480002465    0.00662310794513
H         5.47334183056864    2.07682213654488    1.37626903522676

