95
CSD_code = SIYKES | q = 0 | S = 0 | Stoichiometry = C39H48CoO4PSi2 | MND = 8
Co       -8.20904068549703   -5.76480251953018   -4.42673433774408
P        -7.26851131083438   -7.72891571013224   -4.38160108464607
Si       -8.78687116995167   -6.02091581999363   -7.83823449001389
Si       -4.16955049464748   -3.69878927781826   -5.19460887735226
O        -6.54989960984539   -4.71475718085862   -8.76894970226430
O        -4.56632322178847   -4.92513183747395   -7.76582367316802
O        -6.25843021296996   -4.36188347705900   -1.81720130626534
O        -4.74145200537465   -5.79491460705656   -2.64393836025999
C        -7.72250602506815   -5.61142352353011   -6.29760936810051
C        -6.49168358908003   -5.05419332315387   -6.42527736922968
C        -5.75637181510409   -4.74353957085580   -5.20902413790273
C        -6.40975210568665   -5.11817483298988   -4.09582914017855
C        -5.90576329547326   -4.86237014609763   -7.75068231204264
C        -3.96633676551067   -4.76269009820822   -9.04907033231850
H        -4.17104232080745   -3.74760780782339   -9.40878354727153
H        -4.43931718964082   -5.46344620667489   -9.74793499593075
C        -2.47414452515952   -5.01469629731551   -8.95187639885678
H        -2.28451986383101   -6.02072159821462   -8.58776513628290
H        -2.01592313155737   -4.30569950287846   -8.26889324752204
H        -2.02557240281876   -4.90322772049567   -9.93548728722928
C       -10.32457889270090   -7.05615271797411   -7.33999401965806
H       -10.72224362008383   -7.56047340919744   -8.21568886234929
H       -11.12255784841199   -6.44327961851101   -6.93849645462319
H       -10.08901252063224   -7.82134753150981   -6.60871831154478
C        -9.47486595578185   -4.41764485332939   -8.62600493342730
H       -10.50441874069880   -4.55232636161773   -8.94384816768477
H        -8.88630951641386   -4.13353520377905   -9.48879544714124
H        -9.44361944839731   -3.58568089731730   -7.92977641321105
C        -7.99967831747204   -7.21087086619226   -9.12397432233190
H        -6.98535723042684   -6.94651887487105   -9.39294115908796
H        -8.59054137055952   -7.17630496782201  -10.03440723702188
H        -8.01104931759502   -8.23875208674721   -8.77010041182338
C        -5.83767269343722   -5.00846513313400   -2.74923294441923
C        -4.11309301462853   -5.85521641488751   -1.36592038490940
H        -4.59164357579931   -6.65592094840934   -0.78677960285368
H        -4.28085911653988   -4.90675981175294   -0.84298731261287
C        -2.63054165071580   -6.13445072297183   -1.53769087447929
H        -2.15036236244253   -5.32034421028545   -2.07432356094676
H        -2.48638662038083   -7.05418435485718   -2.09823315296785
H        -2.16562774948371   -6.23686160553869   -0.56068844447731
C        -4.01923272333870   -2.70849528913765   -3.56330436598293
H        -3.30685821916000   -1.89492168321362   -3.67258029019342
H        -3.67522396104314   -3.32359467898937   -2.74068355097527
H        -4.96949152818928   -2.27454757261886   -3.26823265678906
C        -2.63073742247721   -4.82396105806541   -5.31100960538238
H        -1.71646651401456   -4.24035920344419   -5.36912523528900
H        -2.67718691342373   -5.47716180813218   -6.17257961079328
H        -2.57137623863142   -5.45570438255334   -4.43126882421478
C        -4.26140832777928   -2.32353488118000   -6.53014760806904
H        -3.45086612080966   -2.41023721443773   -7.24558602243128
H        -4.19277320040396   -1.33764026162171   -6.08004185951575
H        -5.19423497504361   -2.36286061365671   -7.08407041232641
C        -9.99632022745903   -4.75052535171384   -4.82123151262846
H       -10.38204521605725   -4.39524497763149   -5.76135614245229
C        -9.17094627027395   -4.01230072843133   -3.93243017459212
H        -8.84360936283625   -2.99416972127508   -4.07217186151886
C        -9.06725931866136   -4.75235369233954   -2.72607173924694
H        -8.60128753504340   -4.40093580085461   -1.82077297194999
C        -9.77066879448774   -5.95460629549040   -2.89107203656907
H        -9.95705726403495   -6.68598972184832   -2.11842477196769
C       -10.33892595756886   -5.96265913104868   -4.19076989576903
H       -11.04446169660381   -6.68948701909941   -4.55790408527471
C        -5.63907624232622   -7.98304344624017   -5.15977789776502
C        -4.49403686697023   -8.21905758400303   -4.40645642593941
H        -4.55691114253733   -8.27506770741300   -3.33131241757463
C        -3.26945949053780   -8.37886415146569   -5.02900060072297
H        -2.38570238226874   -8.56382260652261   -4.43543532399678
C        -3.16879959422318   -8.30493363262010   -6.40763558444461
H        -2.20962486781675   -8.43539037562465   -6.88784822032892
C        -4.30297294339643   -8.06527873269442   -7.16419853164079
H        -4.23682158014932   -8.01062669837583   -8.24130063431074
C        -5.52811057097740   -7.89808367079708   -6.54583082084680
H        -6.40559153632571   -7.69281482155962   -7.13627560878686
C        -6.98248989550237   -8.45714292077928   -2.72334601648556
C        -6.61190877270943   -9.79837087605986   -2.63064806488492
H        -6.48749624952626  -10.38073398236515   -3.53358879394140
C        -6.39917606853457  -10.37989569344842   -1.39592703685670
H        -6.11011715440891  -11.41893992314267   -1.33383846912926
C        -6.55610867832397   -9.63278069539879   -0.23800424866709
H        -6.38959073915957  -10.08914879829428    0.72663370760414
C        -6.92708616377592   -8.30244514864795   -0.32287309305386
H        -7.05194434088274   -7.71530772796614    0.57552978926181
C        -7.14171088252045   -7.71712841511819   -1.56061251271118
H        -7.43047519911272   -6.67937698674053   -1.62010388228323
C        -8.27352818505278   -9.11624426011122   -5.04423261242372
C        -7.91762817257374   -9.93445955367419   -6.10824430102833
H        -6.97020792357419   -9.80038475700438   -6.60696548510721
C        -8.77111790114540  -10.94195323146164   -6.52724567987684
H        -8.48576882599974  -11.56925502497687   -7.35926213088089
C        -9.98019088135523  -11.14998320822525   -5.88781217860215
H       -10.64383832169280  -11.93305710367945   -6.22278484093725
C       -10.33224144343235  -10.35282256610176   -4.80997438276394
H       -11.26903972913024  -10.51710778744209   -4.29771203596879
C        -9.48511468980956   -9.34475465509728   -4.39450272464598
H        -9.75534347366063   -8.72224052129489   -3.55315058417349

