64
CSD_code = SIYKEQ | q = 0 | S = 0 | Stoichiometry = C24H33FeOPS4 | MND = 6
Fe        5.85583462541823    6.32215240575897   14.47584327971214
C         5.09017374785349    7.58894837809591   13.54986522629039
O         4.60011257179369    8.35498571711851   12.85451073193361
S         4.71265241397944    4.85012587727060   13.14017072020808
S         7.53423427854101    6.39014893144291   12.97974852754133
S         6.81478518779589    4.55039572356557   15.49573912581572
S         7.12385970778020    7.73829407990089   15.75482188702181
C         6.91616281248567    5.43010653216410   11.60754908104520
C         7.67102970494282    5.36894300247845   10.44756425724286
C         7.22004274099094    4.63161557843545    9.37032825062943
C         6.00093117073926    3.96826624525833    9.45896867153408
C         5.24204752245387    4.04167609787860   10.60496737726711
C         5.68284663537574    4.78277888634933   11.70782642007033
C         7.88457822266331    5.28096412714137   16.72277335166446
C         8.57360512390101    4.44748896378714   17.58875243342567
C         9.41114357332253    4.98782700131479   18.54462995868089
C         9.54132328582119    6.36985941788186   18.63510225257924
C         8.84296746544063    7.19935015578575   17.78758116578608
C         7.99036257651669    6.67165497626354   16.80959234425028
C         8.76340463066384    5.19350490077802   13.64492684380155
C         8.07471806616962    4.00971803780074   14.27573212247898
P         4.20600104511625    6.48501098200459   15.91171089028646
C         4.10915057992332    8.00480927651369   16.94135799909739
C         4.05097683907574    9.28120218382344   16.11001557668419
C         3.96902365872403   10.51496608542991   16.99992675288120
C         4.12341891850205    5.20136189464402   17.23533856413198
C         3.74051357787843    3.82710579910067   16.68848319031328
C         4.15028107079962    2.71461277681643   17.64471970249488
C         2.55194135245364    6.39031688730745   15.11080170053534
C         1.33237379675342    6.59209381325142   16.00577406934376
C         0.05030495483474    6.30994545165065   15.23017309413912
H         8.60936611983188    5.90256114642988   10.40047036512070
H         7.80748323797296    4.57828664531191    8.46696163581530
H         5.64105716449908    3.39385462492060    8.61820396880762
H         4.29225652613859    3.53506320536245   10.67847008144081
H         8.44976130599540    3.37728141741221   17.50235002171348
H         9.95544136274794    4.34167721612211   19.21569658259610
H        10.19414623913809    6.79822680460789   19.38123745803088
H         8.93650606317926    8.27202974865657   17.85506518420177
H         9.34354340814854    5.75548870478212   14.37911225776335
H         9.40492861388437    4.89421347710141   12.81611252703112
H         8.78057606750464    3.36596324746144   14.80098017908270
H         7.52288184542369    3.42780881337374   13.53542094191766
H         3.23055771410367    7.92082002518423   17.58895903298090
H         5.00155256601195    8.01827773721838   17.57484909316620
H         4.94924147589526    9.33843507409952   15.49224655035600
H         3.18652972615293    9.25207644326307   15.44330709431975
H         4.84155272484894   10.57156035205845   17.64639906886443
H         3.07820943874593   10.48127421044308   17.62484252062494
H         3.93089956246028   11.41748708381718   16.39530430608628
H         5.12395634164059    5.16171314205388   17.68162703623303
H         3.42872486619955    5.52377584924768   18.01653065869292
H         2.66266506305641    3.78527110559696   16.52514737071202
H         4.22315133327087    3.67290038668192   15.71998758958565
H         5.22935465056217    2.71153890000098   17.78187390366312
H         3.68167338848230    2.85264654786757   18.61720588263693
H         3.85086860397077    1.74593729176717   17.25249593931429
H         2.51363421768990    5.40653488364758   14.63350862260093
H         2.55558889995338    7.12749804289466   14.30270929132465
H         1.30476001455647    7.61889883803076   16.37432598968528
H         1.38315479768547    5.92444715461315   16.86785694420737
H        -0.02720704469765    6.97177420771631   14.37069973641251
H        -0.82121787854211    6.46338557915768   15.86269361796333
H         0.03959972477950    5.28336190608192   14.87105297816463

