31
CSD_code = SIYQOJ | q = 1 | S = 0 | Stoichiometry = C15H11ClN3Pt(1+) | MND = 4
Pt        1.08283616188940   13.09631749140646    4.99488527176080
Cl        1.28478124326271   13.15214631413284    2.78737711395946
C         0.58962072679238   14.18696392638132    7.51898740603094
N         0.90922008821513   13.04922499523109    6.88365599884503
C         0.42828808431150   15.31711017918655    6.59518691707850
C         1.44570690411643   10.79618008543014    6.57585129957868
C         0.98424310654147   11.81912819884792    8.89358756679752
H         1.13823704204166   10.89674824677491    9.42781912095679
C         1.10987531020060   11.87913188473058    7.50912982362605
C         0.65308039694782   12.97995664215189    9.58183203200232
H         0.55044745093822   12.95221666161918   10.65497442045125
N         1.49174803506824   11.15475313226541    5.26205407236059
C         0.45226851086162   14.17602704698619    8.90363772073523
H         0.19526993926523   15.07078892945725    9.44526109566752
N         0.62346611126434   15.02380121599120    5.27890231813665
C         0.10109482911413   16.60825085698258    6.99357877964218
H        -0.05045558249185   16.82806277447662    8.03758580663335
C         0.49833811482239   15.98492959206867    4.36867170132693
H         0.66449075045073   15.69391995546116    3.33878002504044
C        -0.02811186270510   17.60667363791363    6.04076107192576
H        -0.28150218028580   18.61231900196674    6.33685292460356
C         1.70467221325783    9.48648465968606    6.96354635310161
H         1.66706279415057    9.21565180871968    8.00593347972495
C         2.05120411532466    8.91885932494560    4.67001165972431
H         2.28414176139042    8.21104747139310    3.89168603421280
C         1.78563697360019   10.23932530062308    4.34373597013341
H         1.80731295344111   10.58151487452237    3.31645706249024
C         2.01091022662208    8.53592094849095    6.00220028795376
H         2.21375503534291    7.51649373803429    6.29019602013160
C         0.17380185774890   17.28931664560043    4.70600982940167
H         0.08285888850010   18.03583445852215    3.93435081596621

