56
CSD_code = SIYQIA | q = 0 | S = 0 | Stoichiometry = C26H25ClOP2Pd | MND = 4
Pd        0.77288633864651    1.24078977363837    3.79863697358947
Cl        3.00319545545245    1.42235181051644    3.81481246323016
P        -1.45723671666364    1.22498432861046    4.00602223865902
P        -0.25493014874153   -0.87031073918093    5.49027773519372
O         0.91270926986378   -0.03783732449005    5.83328671071244
C         0.78074943603799    2.51275078740872    2.20574650370777
C        -1.80410114891826    0.13625292633741    5.47652433412522
C        -2.66032032982855    0.62107608156276    2.78576492546647
C        -3.99158766529812    0.34496977506288    3.08105521500204
C        -4.82839593977101   -0.14193263389147    2.09331149060210
C        -4.34343523064522   -0.36110841400478    0.81365997033970
C        -3.01584966653570   -0.09761918555972    0.51847779711101
C        -2.17584953931849    0.39072329277079    1.50207009227487
C        -2.02075323234860    2.85982943063515    4.57890012117975
C        -1.01914162718285    3.61527939232719    5.19267593862854
C        -1.30628708651846    4.87254049897412    5.68873959551845
C        -2.58730925480750    5.38844110085056    5.56074996464543
C        -3.57576798135655    4.65038317870670    4.93128541366357
C        -3.29833421656300    3.38650168115326    4.43803149966038
C        -0.47073042257297   -2.24739757881968    6.65328998949245
C        -1.48540983635844   -2.31774776002687    7.59489662071243
C        -1.52860163067858   -3.38539376805827    8.47532733498403
C        -0.56244734190092   -4.37588508496764    8.41541518482217
C         0.45557450374646   -4.30289121902668    7.47701099391444
C         0.50145858402141   -3.23843291739487    6.59708508014408
C        -0.15751304920920   -1.61044536831196    3.82855446308432
C         1.02138481141331   -1.44413429769756    3.09419539508032
C         1.07141586826365   -1.89666811013976    1.78344877719255
C        -0.03186078331797   -2.52191545225805    1.22063342530277
C        -1.17840739568170   -2.73092587716038    1.96993001512024
C        -1.24471482634862   -2.27275500585696    3.27448280631016
H         1.22054632347237    1.97082196380782    1.36197997681916
H         1.41878420008507    3.36472199850211    2.45276408776705
H        -0.21955751235882    2.87517919065486    1.94329391757607
H        -2.71717731981729   -0.44965252337136    5.38382196637471
H        -1.81388567895006    0.73178585699006    6.39618905828727
H        -4.37521061604069    0.50375676841476    4.08020723751898
H        -5.86264761133941   -0.35457778366544    2.32259176961616
H        -5.00251871988793   -0.74359993319636    0.04847316145863
H        -2.63557970573696   -0.27716894132307   -0.47588657904093
H        -1.12870934749922    0.58515786506678    1.29800595714450
H         0.00013263499458    3.20693129917160    5.25914023282231
H        -0.53254425645929    5.45613023924071    6.16457991783138
H        -2.81229475302044    6.37371949194370    5.94117728951689
H        -4.56819854438933    5.06207292542840    4.81898151822494
H        -4.06794964614838    2.82359978468559    3.93032463187092
H        -2.23542245247894   -1.54096670946060    7.64596924072036
H        -2.31655954850885   -3.44288326776817    9.21197346660384
H        -0.60021108622784   -5.20541513512180    9.10569532039534
H         1.21078236677721   -5.07348888248692    7.43583417764968
H         1.29067650791034   -3.15462663883982    5.86091577478100
H         1.91291326291383   -1.02540870865194    3.56834738780165
H         1.97512260128754   -1.76354165475027    1.20712397462910
H         0.00821306010584   -2.86331970440663    0.19682342757336
H        -2.02622196091207   -3.23991823893454    1.53584316841299
H        -2.13807139413146   -2.42768258312303    3.86463084814423

