41
CSD_code = SIYRAV | q = 0 | S = 0 | Stoichiometry = C20H8F8MoN2O2 | MND = 10
Mo        3.96990887760605    3.64185335729567    4.38473502559156
C         3.62040050180205    5.55554667256550    1.61747260748701
F         3.66208984762918    7.02777620602682    3.47345529521153
F         6.85262989505429    1.55356962562053    5.20726162322407
C         3.10192040505685    5.33705062353905    0.33249283467124
F         3.38718760918595    4.20434375749605   -0.32329583015684
F         4.89964986724535    0.64908194198874    0.97398792201046
C         5.53634466816435    4.92631393479537    3.19099309739318
H         5.91016554138557    5.92081853453230    3.39747036933244
C         6.14780598641501    3.73347728390618    3.62060809232889
H         7.09528127041532    3.68250272235508    4.14202321177811
F         1.79741342009569    6.10716663493468   -1.46934998843754
C         5.47723768519972    2.63508979499475    2.97862217836906
C         1.87061748033382    3.20005552060639    3.86900165882091
H         1.60327023330473    3.27743374895640    2.81553055111029
C         4.19492685081194    2.68005612261657    6.03539728163658
C         2.29329680578223    6.30320493798588   -0.25637163916936
N         1.97878727648562    7.43489655890788    0.33157660311216
C         6.56324566250692    0.73837686098405    4.18332112581599
F         2.09009166860013    8.81150192080639    2.10298106081598
C         3.70094166900664    5.00908004795851    5.72601144509427
C         5.86056241655847    1.23545193333553    3.07360821569493
C         5.56935313107877    0.28914749597851    2.07890582353710
C         3.25910097287820    6.77077005527021    2.21905990842608
C         1.74793143390026    4.30321929048074    4.74436080063029
H         1.36308456418939    4.11605358504520    5.74469844804295
H         1.39594088677143    5.23894386655207    4.32022560697332
F         7.58281506607952   -1.07500882491064    5.28395671525309
N         6.63554436911273   -1.46291623544356    3.28614898585103
C         2.44370749081307    7.66586885308028    1.53878650504279
C         6.92112137793997   -0.60290620582177    4.23803906542212
C         2.34874267850288    1.99947142000064    4.43977807570079
H         2.47859918386550    1.15092474901472    3.77279161014948
H         1.97871242391803    1.71338326120856    5.41965646947684
C         4.48051965707001    4.60222354837031    2.29805145318579
F         5.69725390282593   -1.92695299380982    1.29959622313610
C         4.44004403004551    3.18789327384729    2.18094455554078
H         3.83084889265248    2.64107297312449    1.47334720565666
O         4.33777909102357    2.08621297713790    7.00122297266395
O         3.56238214904959    5.80794093391857    6.53168881868894
C         5.97424305960696   -1.03149076523819    2.23740801490741

