32
CSD_code = SIYREZ | q = 0 | S = 0 | Stoichiometry = C15H9F4MoNO2 | MND = 10
Mo        4.20292782476931    3.19625300900281    5.22538109507291
C         7.25309926719694    3.19627095127258    6.60246297512298
C         6.47539491542209    3.19625280283568    5.37002324761845
C         3.68031574310558    2.00237390989713    6.63991791880320
O         3.37593488555578    1.29760013992097    7.49095044308178
N         8.78776114666567    3.19631753709473    8.99057614776381
C         7.66517626125689    2.01653568750242    7.25137456532134
C         2.41764700232813    3.19631893511420    3.91413441694718
H         2.62358399786959    3.19633867941997    2.84354804895590
F         7.33058171000990    0.81051537633852    6.76620080521287
F         8.79640567118506    0.95065166713421    9.01367545366288
C         8.41396156006858    2.07414550775205    8.41952833641833
C         6.10010412054710    2.04221576902597    4.58858239402076
H         6.36228913113927    1.01560821337264    4.79405041189010
C         2.28792880163431    1.99693342377648    4.64621514922393
H         2.41760941624074    1.06420011918436    4.10521598121921
H         1.51346987676934    1.94655258838677    5.40684832937666
C         5.51583674741585    2.48796428419829    3.39984377871845
H         5.24056231468010    1.85739190252649    2.56378978442587
C         7.66506863253457    4.37603107906341    7.25139805376187
F         7.33035337318402    5.58203012147023    6.76625528064687
F         8.79621098149320    5.44198346918896    9.01371361294586
C         8.41386356318364    4.31846676289050    8.41954744701589
C         6.10010831932832    4.35027221837328    4.58855236328833
H         6.36230651869400    5.37688307375420    4.79398907011437
C         5.51584538629076    3.90449426619997    3.39982278046732
H         5.24057893620845    4.53504690270964    2.56375032075528
C         2.28796974528355    4.39567474674177    4.64626836833117
H         2.41767740249020    5.32842846655195    4.10531087010243
H         1.51351826703146    4.44604570055126    5.40691049289880
C         3.68039223541156    4.39017223985465    6.63991527907618
O         3.37601624500605    5.09483044889385    7.49104677773922

