45
CSD_code = SIYTUP | q = 0 | S = 0 | Stoichiometry = C16H22N2NiS4 | MND = 4
Ni        6.11543899713586    0.60363398947608    2.79950882393599
S         8.26717107734030    0.75061526063059    2.80980737153915
S         6.32776356191528    0.64828147037656    4.94004045527737
N         5.98999883432485    0.25662783261824    0.90847815945251
N         4.19154437047133    0.79638160657851    2.81964490261913
S         4.89181080059041    0.86576924459175    7.51697578513033
S        10.71798044970823    0.62451531295740    1.15398429720169
C        11.22859749487077    1.01503363718434    2.84640647953331
C         8.96966243244271    0.46449566184134    1.28618261840425
C         8.29651902606125    0.10548309971658    0.14736676286896
C         6.89765268179378   -0.00978669593419    0.00791042648614
C         6.58841607166914   -0.45307792597206   -1.40499974222890
C         7.92299956619864   -0.97227927648023   -1.94414031078271
C         8.97988517815245   -0.19277398300417   -1.16225833570624
C         4.59505876548669    0.12838269736600    0.50962027168462
C         3.72152148776591    0.95226983441475    1.44985955815568
C         3.32567827596316    0.90236554251135    3.79195297064595
C         1.83642306274464    1.10241981482804    3.60859063645334
C         1.22779377250052    0.79233731737748    4.97763843710793
C         2.34397969728071    1.08972340377590    5.97724314214712
C         3.60563816717309    0.89856453789292    5.17576111964312
C         4.84369934922529    0.80306057713873    5.75709206353657
C         6.65515985684324    0.69910168906760    7.89221133117726
H        12.31040596288412    1.09914154935281    2.82037289310511
H        10.92021133819932    0.21375307164320    3.51029570656663
H        10.77756013764593    1.95342992177528    3.15289590574227
H         5.80924721879888   -1.21520410191631   -1.43675870123310
H         6.24642381949154    0.41120583442292   -1.98260666056756
H         8.01380291451872   -0.83890825249600   -3.02088260384389
H         8.01488092652079   -2.03641047452114   -1.72212787313771
H         9.23917018645758    0.74167441527502   -1.66817550058716
H         9.90148666282496   -0.75717198256640   -1.01924386236486
H         4.29929758102950   -0.92870665460269    0.56801824261555
H         4.44075416630449    0.47740723476896   -0.51782380701141
H         3.79480846509254    2.01450824902093    1.17867509304781
H         2.67926379340124    0.64139200512149    1.32900473219010
H         1.41351635500083    0.45943445299800    2.83626999371487
H         1.65693460378951    2.14164985502157    3.31871718346531
H         0.96512338338423   -0.26546791657816    5.02565249552816
H         0.32818572235743    1.37487052840026    5.16917311739653
H         2.31433607651406    0.43282529081001    6.84711357024518
H         2.29095513888487    2.11967065460074    6.34141488014613
H         6.73479507667984    0.73890583929739    8.97392964617286
H         7.20045747485459    1.51879981435027    7.43549160657832
H         7.01729001770868   -0.25184398316131    7.51491671794681

