51
CSD_code = SIYVEB | q = 0 | S = 0 | Stoichiometry = C18H26N2NiS4 | MND = 4
Ni        4.02331198219022    1.22872117011971    9.34072183653664
S         4.69780513861554    0.09333287517929    7.63762321223141
S         3.31199919871910   -0.62029253849583   10.18305166628444
N         3.60510640666730    2.86951669592693    8.33848930537441
N         4.49228017490865    2.07154956482233   11.06163840803642
S         2.51868472436847   -1.95204794281813   12.70122566330566
S         5.54591661356460    0.30918713603632    4.81287006978891
C         5.88131918987179   -1.38681243783260    5.35042571152179
C         4.86946713750992    1.06783867758829    6.25526963156157
C         4.49184109900112    2.37958705642480    6.12509402438805
C         3.85162885268624    3.18416956826469    7.09668876865245
C         3.42199876838589    4.47156672539747    6.42040761292972
C         4.32965488760459    4.57352225053532    5.19528527681600
C         4.61215749101911    3.12102976673073    4.81715951475550
C         2.84478833623230    3.83065009316359    9.13484397801446
C         3.71637252836500    4.95768200823295    9.71247969128408
C         4.38556184443482    4.56818048533782   11.02619666405849
C         5.25493290186056    3.30694538498452   10.89459513631043
C         4.26857784331106    1.67044519449355   12.28290740067291
C         4.73683282696201    2.38743393722691   13.53443793924615
C         3.86106076379361    1.81541777942756   14.64845975666712
C         3.55025160519626    0.39282392566650   14.18819137314898
C         3.62328595097614    0.47715848367639   12.68404752186475
C         3.19849358913481   -0.54714701762876   11.87743355101117
C         2.11110223680094   -3.07695606642681   11.34242541861178
H         6.30379669458819   -1.89432403903158    4.48894671549705
H         4.95336315730900   -1.85865073529843    5.65757156054060
H         6.58909139563803   -1.37365630484052    6.17333834307209
H         3.49257559309046    5.35172267043473    7.05516251019785
H         2.37755617593414    4.35526190207192    6.11316272920256
H         3.87050697517426    5.13736061468765    4.38487121012371
H         5.26077229010086    5.07093009062176    5.47270151291389
H         5.59612593390994    2.98620387819659    4.36623585278318
H         3.87135525809265    2.74306091751909    4.10675054366360
H         2.04763232866675    4.25887400526066    8.51556498293874
H         2.36441488056320    3.29298661251554    9.96021277520667
H         3.08927674352488    5.83556099323187    9.88418536984575
H         4.49008610343419    5.22848757569961    8.99139902962051
H         5.01299526781270    5.39785392625163   11.35980600387532
H         3.61279525649592    4.40221520963428   11.77948794248192
H         6.06349581843568    3.33376920947861   11.63453395449057
H         5.72025883417293    3.29571985806681    9.90274169535319
H         5.78629817625863    2.12222688472594   13.69898373699927
H         4.66595315713394    3.47116751166245   13.47626622460491
H         4.35368932943124    1.84480073657993   15.61902989722509
H         2.93675803881707    2.39178126858629   14.71721095403054
H         2.57338580836788    0.04439377036883   14.52576821254463
H         4.29671274839175   -0.31692196077086   14.55612447610445
H         1.68728914758984   -3.96236272430684   11.80572519227737
H         3.01504948276220   -3.32476753517548   10.79511574094266
H         1.38823331212782   -2.60489711220453   10.68443370039328

