60
CSD_code = SIYVOL | q = 0 | S = 0 | Stoichiometry = C29H14F10N4NiS2 | MND = 6
Ni        2.70151122849471    4.53345352169264   -0.20715966403619
S         4.82543512284367    4.62760991602948   -1.40243712293847
C         5.82021720314159    4.72919998742375    0.00663813583144
C         6.24738607350076    5.96530277958441    0.51283223201993
C         7.02620895969008    6.06583560523682    1.65287716896561
C         7.43667454815487    4.91605748457541    2.31963427379216
C         7.04724104085587    3.67302984905670    1.83017417708099
C         6.26145445631324    3.58939508798596    0.69339385476750
F         5.83996206958862    7.09721377614905   -0.08438876844425
F         7.36143542753795    7.27147473130966    2.13669761668482
F         8.16924928740741    5.00594612782875    3.43851168777584
F         7.41281555690789    2.55809475388871    2.48003784947998
F         5.86748404802472    2.37429169905988    0.27881658875889
S         0.57297359514189    4.52085407781665    1.02589706502284
C        -0.36665713150249    4.94289137623356   -0.35678697322050
C        -0.70939578379691    3.99680288792359   -1.33539071134843
C        -1.39194869555474    4.34559278780614   -2.48705922342121
C        -1.77925589250515    5.66635399411581   -2.69598988765382
C        -1.48369244227034    6.62107308420632   -1.72865477131996
C        -0.80457608199862    6.25622373774056   -0.57814622395428
F        -0.29621477480078    2.72922614276190   -1.19033967224708
F        -1.65237339921606    3.42154715555957   -3.42500561691831
F        -2.40432117615500    6.01843916300004   -3.82923737491203
F        -1.82080510517799    7.90414250731340   -1.93377091061287
F        -0.50719130244027    7.21153366556889    0.31936045730093
N         2.77480770266276    2.80536284284246   -0.15221095832182
C         2.88027214400885    1.66250400341862   -0.12472774777445
C         3.03069553942752    0.24594956290703   -0.08709922431467
N         1.88416123045951    4.80795224941243   -2.31223976262684
C         1.69273164538389    3.97655783068723   -3.32348885857294
C         1.40502408307257    4.40883736720622   -4.60832472595328
C         1.33258003353147    5.77267024811580   -4.84067169737057
C         1.55807026046997    6.64695360011975   -3.79163148223062
C         1.83016387932365    6.13063519197010   -2.52592241064571
N         2.60163915467043    6.36395930363041   -0.25821737692501
C         2.10217054490949    6.97390079369360   -1.34755066417013
C         1.85705993187392    8.34559867601306   -1.35543667660154
C         2.15948009944686    9.09559879792864   -0.23627230357031
C         2.72072990403934    8.46462089177223    0.85755895115397
C         2.93333898953858    7.08910675122076    0.82397210053915
N         3.51711114612214    5.02743783129372    1.86324115490836
C         3.50607322134837    6.36345584720389    1.97340490712918
C         4.01682201774420    6.99670656866698    3.10616825192375
C         4.51757226092235    6.22602206516934    4.14069316642575
C         4.48293391406839    4.84507705662765    4.03025765966105
C         3.97408663239911    4.29416410785231    2.86489225875940
H         4.09353887751143    0.00279017668585   -0.08653387501340
H         2.55536469502763   -0.19502795981604   -0.96263413820479
H         2.56226311771375   -0.14927378296322    0.81382638827004
H         1.75947016972376    2.92253965199268   -3.08950402748352
H         1.23902850023165    3.69686810698902   -5.40021342011503
H         1.10985495972515    6.15319043949010   -5.82598819264856
H         1.53526398656914    7.70957717714461   -3.96801830654224
H         1.41124176882166    8.81552473169385   -2.21567855175667
H         1.96063188007158   10.15542239995958   -0.21628602201260
H         2.97058381591407    9.03477355950906    1.73539718346888
H         4.04267658166741    8.07055391828851    3.18359477497166
H         4.92640641058401    6.69826563402770    5.02106485474451
H         4.84967326724815    4.21158450109528    4.82168919541599
H         3.92826080163260    3.22185395770711    2.72698538912020

