69
CSD_code = SIYYEG | q = 0 | S = 0 | Stoichiometry = C34H24I2N8Pt | MND = 4
Pt       -0.88058030855360    3.24149898396411    3.18219632227030
I        -1.50735645314244    4.99318657502608    1.41313809880085
N        -3.08125143518230    0.54705869475901    0.87407139164215
C        -2.75856117341345    1.71515950718564    1.36893941517414
H        -3.42741552647623    2.55237780733894    1.32419079776941
N        -1.53175061518854    1.76454777185102    1.91574031325784
C        -1.04925204718343    0.53514615643287    1.75308467057969
N         0.11164681767307    0.06003268204245    2.14053817183554
C         0.32068374859404   -1.23885771841533    1.97675759761625
C         1.57615945055556   -1.76132441215527    2.51499640364470
C         1.70273359863965   -3.08697233644888    2.92996170519319
H         0.85949910429880   -3.75930493440021    2.86993645043641
C         2.89887134220998   -3.54105789616576    3.45106510453950
H         2.98562613141265   -4.56696536081748    3.77641184740368
C         3.98211183940304   -2.68453196284242    3.56172181006105
H         4.91631511337887   -3.04745308792256    3.96217688865502
C         3.86128517941876   -1.36201686570805    3.16491021403465
H         4.70033303389947   -0.68946207540241    3.25745913913793
C         2.66592570651363   -0.90014347054849    2.65093278951595
H         2.55757632764520    0.12639440998785    2.33699083665548
C        -0.62725126817669   -2.05635857486599    1.33021230429334
H        -0.41014164952377   -3.10113578642950    1.19354870030321
C        -1.81508880301794   -1.54240602382745    0.85138036370807
C        -2.80394328030597   -2.33507802809652    0.12688495701632
C        -4.14678109104270   -1.95529082312014    0.07238613395165
H        -4.46632506852688   -1.04929404665392    0.55855552958580
C        -5.06660201213175   -2.73541068057747   -0.60217304867922
H        -6.10033671461976   -2.42677233238413   -0.63269897821296
C        -4.66979403946832   -3.89867158011775   -1.23904126515161
H        -5.39028112760407   -4.50391388956219   -1.76802588303678
C        -3.33640248552440   -4.27648657213433   -1.20558034143560
H        -3.01494951773156   -5.17291008445332   -1.71456070738238
C        -2.41147395836889   -3.50591652153488   -0.53088624250844
H        -1.37343369834563   -3.80104290343270   -0.54459935874473
N        -2.01956824807612   -0.22257478628843    1.11206233750079
I        -0.25432711864654    4.99468646027731    4.94989154884230
N         1.32095776036590    0.54683129518664    5.49112350894762
C         0.99847233421182    1.71477154221798    4.99576766783407
H         1.66725220132574    2.55205299095140    5.04039901621860
N        -0.22814013981343    1.76400599518861    4.44862843248886
C        -0.71079008807062    0.53480410252055    4.61157245964842
N        -1.87172982700515    0.05986586418088    4.22395851826998
C        -2.08093764440681   -1.23892842594246    4.38790770880904
C        -3.33642527995697   -1.76124697336991    3.84955491825859
C        -3.46290548775300   -3.08683851402961    3.43439005384736
H        -2.61957530794226   -3.75907048133809    3.49429160798553
C        -4.65903046071137   -3.54096475281471    2.91332830463714
H        -4.74566219858222   -4.56680944108667    2.58778006304851
C        -5.74232726359133   -2.68447858030589    2.80283059171404
H        -6.67651559807322   -3.04738540017863    2.40231868503413
C        -5.62151322281930   -1.36196077503710    3.19962869656770
H        -6.46057537513966   -0.68942718511832    3.10706018401911
C        -4.42616943419623   -0.90005560247130    3.71363811719521
H        -4.31794622358059    0.12645340066210    4.02770874206146
C        -1.13307198126056   -2.05652458017587    5.03444585035000
H        -1.35013727150362   -3.10133513518018    5.17085943585370
C         0.05477125217493   -1.54269390378031    5.51338918364803
C         1.04366474484309   -2.33547456670238    6.23772577713358
C         2.38651899877315   -1.95566246141904    6.29201333988870
H         2.70601502939330   -1.04980045575555    5.80550588452444
C         3.30635357230845   -2.73559729924252    6.96674280041683
H         4.34010824583769   -2.42694043492487    6.99731490017769
C         2.90955281454574   -3.89865703849008    7.60405067938826
H         3.63007771705630   -4.50340270007425    8.13357099366305
C         1.57625304540335   -4.27665143910028    7.57045386736968
H         1.25481317705152   -5.17305605585390    8.07951156636005
C         0.65130530730640   -3.50632216899705    6.89547466740618
H        -0.38666555515983   -3.80173018100439    6.90899392146176
N         0.25920240555717   -0.22280693312890    5.25308383748951

