45
CSD_code = SIYZOS | q = 0 | S = 0 | Stoichiometry = C17H22Cl2NOPPd | MND = 4
Pd        4.57972590578936    3.97677594596424    7.38837665939693
Cl        2.49105285120574    4.50830971395028    7.94060335509319
Cl        5.01221131141093    6.15511827626705    6.94192673833011
P         4.30575839547911    1.74736012122806    7.74603687345939
O         5.42620320255231    1.00688482086339    5.34528841051452
N         6.50486745331069    3.64422542666650    6.83473179217072
C         6.83729282910926    2.91730200928159    5.76842512210377
C         8.16516541525701    2.66954700523715    5.44857641081563
H         8.40049592334023    2.06467826180744    4.58745404109624
C         9.16540018352023    3.20503229016382    6.24287753516343
H        10.20410846656022    3.02380869092215    6.01341353699085
C         8.80367772632230    3.99004562393356    7.32695120691663
H         9.54787427110054    4.44630527996108    7.95930776074729
C         7.45978494484955    4.18516992990744    7.58696122092034
H         7.12655811747607    4.80714846404543    8.41257501210643
C         5.71719274514521    2.33421369337205    4.93716139929510
H         4.82120022808342    2.98670275122270    5.00597886916226
H         6.03504802860671    2.27194821198831    3.89047894908187
C         4.26586377947341    0.82871031470829    6.12151019775810
H         4.18418634920026   -0.25189523974369    6.27174198743715
H         3.37560567945558    1.18314429257503    5.57365805620601
C         5.84516963249059    1.20116122404096    8.54662379133963
C         6.59308940985174    0.08674780263101    8.18862132275156
H         6.25534476316058   -0.56666451409803    7.39903414959443
C         7.78915075604333   -0.17479097672248    8.83625338169523
H         8.37270361848934   -1.03801938948007    8.55198427750521
C         8.23962700079022    0.66246989232272    9.84275835046052
H         9.17239525010484    0.45047413350852   10.34352336760282
C         7.49871831759212    1.77838834745616   10.20255140110016
H         7.85279147452759    2.43467804241018   10.98362336360646
C         6.31281648362678    2.05213705506311    9.54947415081505
H         5.72833820509384    2.94047834538387    9.79957938374577
C         2.94422509383367    0.93821694427025    8.75470208289989
C         2.90134482739244    1.69472730912806   10.08234938288959
H         3.80759294014698    1.51744602735318   10.66053164799228
H         2.05020642539737    1.36329169647160   10.67391332696871
H         2.79254217315256    2.76471163102208    9.89651026720225
C         3.22450666499856   -0.54262622395518    9.00214276292380
H         3.21183119368412   -1.11681046071478    8.07838739764810
H         2.45102650894018   -0.94585137697983    9.65366193332869
H         4.18697991835178   -0.68532493991751    9.49060325434459
C         1.63036650578819    1.13315383984624    8.00039261526161
H         1.50053563637351    2.18708158399296    7.75289045746929
H         0.79639123844172    0.82566385442373    8.62839942824266
H         1.60413215447659    0.53962426822102    7.08815336784209

