49
CSD_code = SIZBOV | q = 0 | S = 0 | Stoichiometry = C17H26Cl2NOPPd | MND = 4
Pd        3.64095958364613    5.65314639926926   11.06547281057367
Cl        2.36278032853973    6.31749005530004   12.76552420439407
Cl        1.77518371206382    5.09834142996025    9.92066738314412
P         5.61274684640459    5.68185032722782   12.16957213311900
O         6.88215558258550    5.55419081463784    8.53028035663137
N         4.84712974255294    5.35058875625564    9.40374630633169
C         6.10664937286791    5.26621815679048    9.58161993219095
C         6.00898605429732    5.94953451133475    7.46697580789647
H         6.19058685674630    5.29833196406324    6.61028047116305
H         6.25564049223330    6.97896716612496    7.19694900037969
C         4.57944085660854    5.80013500179026    8.04786805932073
H         4.01806157199432    5.01374312852318    7.52975022128130
C         3.71753065543717    7.08206929734143    8.02981165803068
H         2.71858135033752    6.77704320169861    8.36689984807857
C         4.23178747504616    8.15178103815081    8.99894287846083
H         4.01662002654442    7.86106411062869   10.04611884935551
H         3.71695681079523    9.09019387630246    8.80840762957591
H         5.30333872318055    8.32170176050111    8.89048140748058
C         3.59849463067016    7.62195838217026    6.60708638510005
H         4.54099789112462    8.03200156028488    6.24966500837756
H         2.85449153454089    8.41339291848044    6.57888999587411
H         3.28312345858475    6.83584939890100    5.92552590383013
C         6.73325130423279    4.91516232604621   10.87812349342625
H         7.76655749925602    5.26269615553264   10.90094571209870
H         6.71388500691775    3.82904450610469   11.00247540494939
C         6.48778442960351    7.17725125388661   12.70920713502647
C         7.86738396878920    7.29773742020761   12.84099322584417
H         8.51888640487484    6.46522410382659   12.61617606613199
C         8.41325419169644    8.49513876303362   13.26828461527730
H         9.48459081045985    8.58821942690755   13.37163156649311
C         7.59293570514909    9.57211692008663   13.56463178824705
H         8.02819143055566   10.50269365246097   13.89702537959551
C         6.21809505663918    9.45673849075797   13.43302180804545
H         5.57901709247940   10.29591960939227   13.66215964748136
C         5.66575595007358    8.26436644131762   13.00365872258408
H         4.59183196890707    8.15164488365844   12.89506579158332
C         5.65717066024070    4.47989209757626   13.60522586206353
C         4.78226969619703    3.29907819905643   13.17109940192922
H         3.80314057174163    3.66054402943808   12.81219299791366
H         4.60556344238371    2.63267563091035   14.01345794221379
H         5.25442692639288    2.71911284515608   12.37632318423345
C         7.06816273839599    4.03073724148960   13.97445469812794
H         7.56415124281038    3.51960320541642   13.15137288848935
H         7.01715459381719    3.34017364089765   14.81491655169908
H         7.67472896089650    4.88194334394704   14.27722730286498
C         5.00272479590780    5.20690095892073   14.78018672694550
H         5.62168918554515    6.03905343272724   15.11357832456793
H         4.86652454484306    4.52308946283819   15.61578282907331
H         4.02582826430383    5.59404870269698   14.48494468247106

