68
CSD_code = SIZCAF | q = 0 | S = 0 | Stoichiometry = C32H29PRuS5 | MND = 6
Ru        3.04759353449200    2.98532365592910   11.34057857825329
S         1.25909734532119    4.45020867145832   10.63291682208553
S         3.14154706432352    2.21893463167291    9.12457243162306
S         4.54618150800372    4.63367110522210   10.72100873280636
S         4.97369790548894    1.59178131494129   11.85966000170465
S         1.32360490174240    1.24807207964971   11.74722887014179
H         1.69319966806786    0.34728284177785   10.83119527325681
H         0.41241950834746    1.80238087655678   10.93387037890199
C         1.92836883759143    3.20089085509379    8.25316802805798
C         1.77114405919329    2.97340347303877    6.89493799423656
H         2.37705577148828    2.21883931942374    6.41305008269426
C         0.85231476685418    3.70705022467479    6.17245450049393
H         0.73584086781091    3.53719217578288    5.11335777233541
C         0.07665088654063    4.65971025177524    6.82580447687385
H        -0.64656660405192    5.23614640696960    6.26801031114898
C         0.21681006804156    4.87145083489256    8.17725287700020
H        -0.38558275583801    5.60391373018415    8.69227993882769
C         1.14774887536868    4.14309167625431    8.93149501917817
C         6.13977836808547    4.00213748907557   11.21254119582119
C         7.22125747316548    4.86214344851389   11.11963354883312
H         7.06148896540095    5.86815591744022   10.75855904469729
C         8.48115691571618    4.43216279450516   11.48447530723095
H         9.32498248723789    5.10034999556097   11.40905814243719
C         8.64761295285768    3.13401032592312   11.95465081688456
H         9.62976042959424    2.79032546585650   12.24469979626508
C         7.57265671719202    2.28266583116987   12.06007104526354
H         7.69345879239526    1.27548048807450   12.42899482657156
C         6.28526619867304    2.70077143291388   11.69895524309841
C         4.66978204323479    2.99526086087063    8.49290939462181
H         4.66907934287495    2.87866267402477    7.40820248110108
H         5.48920743061974    2.42040443885477    8.92998271697439
C         4.72792757243636    4.44455575971975    8.89996431170319
H         5.68003402357137    4.90307088541265    8.63245658783377
H         3.90434530467553    5.01362929849887    8.46267806865115
P         3.07761123161056    3.64123125919934   13.53901302580841
C         0.41873374190512    4.18956699153624   13.80494062716065
H         0.33017176835505    3.27817602107380   13.22546325381671
C        -0.71023688263516    4.86760870723441   14.21989532211205
H        -1.69054734683054    4.49340348926775   13.96391184895357
C        -0.58107370647670    6.03150751007903   14.96044508152312
H        -1.46102615202913    6.56974057492573   15.28117651308409
C         0.67759678354204    6.50395843382127   15.29097252060488
H         0.77941418607318    7.40761150228546   15.87500920316827
C         1.81141000401189    5.82624721015006   14.87784322796587
H         2.78877121212981    6.20304469384111   15.14512808077317
C         1.68713169425429    4.66758632049039   14.12071384158965
C         5.65770540506443    4.03771349047758   14.55934238067678
H         5.60094747890543    3.01603595750648   14.90836020189696
C         6.82157201065577    4.76804044790625   14.71984591733845
H         7.67604380435243    4.31511653390980   15.20082832856368
C         6.89631359862962    6.07083708915349   14.25717061197420
H         7.80755588581438    6.63670146731571   14.38379614812143
C         5.80708982251737    6.64604471515764   13.62140803288526
H         5.86858272557285    7.65978834628879   13.25239026150214
C         4.64514692763563    5.91883409815889   13.44696597457192
H         3.79590371402846    6.34687986821547   12.92822492561565
C         4.55808918161648    4.61414089488198   13.93293461047844
C         3.10701241113663    1.03482203638593   14.61058061151757
H         3.17183071395752    0.68583872281578   13.58890611235044
C         3.09049602400538    0.12377877479986   15.65281776716690
H         3.12136277590828   -0.93453935052750   15.43951078814318
C         3.03836022957836    0.56763331449073   16.96235965963576
H         3.02607772303439   -0.14350286835664   17.77543589555170
C         3.00517153683786    1.92762341505968   17.23178185834801
H         2.96854824864178    2.27598867051264   18.25394002296649
C         3.01849038975821    2.83974293577984   16.19514914407878
H         2.99194898677646    3.90076825542111   16.40236138125405
C         3.07077264595776    2.39679923884532   14.87480220117274

