50
CSD_code = SIZDIQ | q = 0 | S = 0 | Stoichiometry = C20H22N3O4V | MND = 6
V         2.06782571816613    5.50169656332008   17.99743380393134
N         2.94443584288109    3.76304152559112   17.75726467518645
N         0.59099617783790    4.35918524126913   18.32256908500825
N         3.77198770871112    6.57715337937153   16.17605058754905
O         2.84661960871698    5.37636166776373   19.79156962043135
O         1.07709389919826    6.76601339838772   18.20591209003519
O         1.84245492166090    5.51529059323493   15.88362403882668
O         3.70752672271797    6.34667361921105   17.50215821053811
C         4.82891338953214    4.23908925812076   19.12098315290178
C         4.09463208629170    5.17612638511604   19.93024434496922
C         4.81761913440143    5.77823032571071   20.99720333384124
H         4.27702219772510    6.46732651869227   21.62962468146969
C         6.14875020068444    5.53776490953239   21.19316578230152
H         6.67064629323824    6.04453231852435   21.99387560678792
C         6.86755556984137    4.64417397842934   20.38017449109719
C         6.18791072061948    3.99705456418300   19.37743868631054
H         6.70885734226375    3.28930346621277   18.74436065388429
C         4.09054542729342    3.42360516147914   18.21938900661789
H         4.49325923019128    2.42456174155867   17.99518655778067
C         2.03289135718913    2.79914671884545   17.22538062722935
H         2.43144357238054    1.77228771315424   17.22451658798351
H         1.73997946330721    3.09322705711757   16.21061699984888
C         0.82207505369301    2.94284049325668   18.15527233801273
H        -0.05754727705277    2.42548769417976   17.74776629141006
H         1.07125527568655    2.50788166564154   19.13480735128244
C        -0.62977257176291    4.71130232163022   18.61854337886302
H        -1.39930315873199    3.94228370858848   18.71821600948989
C        -1.05099401906249    6.05853245924532   18.79076460024442
C        -0.11891359462338    7.11023269595790   18.54830307988892
C        -0.53968761833956    8.44027348292722   18.66944870476392
H         0.17949704285938    9.22607775296829   18.48246533086787
C        -1.83581045017106    8.73343777142255   19.03384784574183
H        -2.14510397964942    9.76385070531619   19.13199167921931
C        -2.76279525463635    7.71479581022930   19.28000665654154
C        -2.36252536607273    6.40060984912913   19.15219396953547
H        -3.06952876065777    5.60387952747443   19.33929732063789
C         8.32837272387882    4.41302423171237   20.63144224425176
H         8.72653592002476    3.66684262512204   19.94825362928269
H         8.49086474617837    4.07048415648098   21.65301857817558
H         8.88930645341461    5.33806318495140   20.49860848512808
C        -4.16621868363215    8.06814822979117   19.67293496464733
H        -4.64183356726901    8.65900604942380   18.89068085600748
H        -4.16584227381213    8.66396260554552   20.58490470039967
H        -4.76015343351018    7.17387387548089   19.84231222354533
C         2.85908997952090    6.49307883267914   13.92784623811996
H         2.49187447599108    5.64695308837109   13.35212477383587
H         3.87182030799915    6.73642639192789   13.61939124708310
H         2.20979359759099    7.34346843527515   13.72392215624359
C         2.79199664639684    6.16222897809932   15.39904707242910
H         4.58618120093845    7.09900727234863   15.86364564982248

