43
CSD_code = SIZDOW | q = 0 | S = 0 | Stoichiometry = C14H20N3O5V | MND = 6
V         1.76581952410754    5.85518083225487    3.13850609579010
N         1.09053878933024    4.02649790264645    3.51873896538131
N         3.43168057098450    4.67479701460933    2.45875668223842
N         2.11980727170060    7.49250657804998    1.05890386530441
O         0.10857279944876    6.43726308271133    3.44931413821707
O         4.47811047056927    5.85069979475804    0.23233669146825
H         4.12374260019635    6.72227022089356    0.47531941122472
O         1.14678481482928    5.47994286251038    1.18453842449845
O         2.36692529605373    7.20912225054045    2.32900096832522
O         2.51081055468117    6.06908242932050    4.45134093423508
C        -0.64115433701413    4.79761815044493    4.97935246721433
C        -0.62109623066578    6.12286983495083    4.45966000745611
C        -1.46905759552492    7.10114545159941    5.05122699466795
C        -2.28894408675445    6.74607613918046    6.09589562965263
H        -2.91855308164103    7.49747214968397    6.55135889250717
C        -2.32726614774250    5.43611134041365    6.58388891905741
H        -2.98883554699057    5.18889240655341    7.39988140376584
C        -1.51965993872590    4.47731303065891    6.03002585507968
H        -1.53421954944581    3.46403096430435    6.40646815746001
C        -1.39102673661632    8.49368637621647    4.50758209888198
H        -1.81435631714018    8.52732863187632    3.50290266521461
H        -0.34364579795328    8.79182628570921    4.42837892220221
H        -1.92660907452702    9.19473006213384    5.14211515743728
C         0.18556562708889    3.79602752365311    4.39312575996232
H        -0.00040623180201    2.76148917354796    4.71325046170263
C         1.85612093013676    2.94805824669642    2.96454090682861
H         1.57733552663077    2.83536412279395    1.90794737280830
H         1.67404045955982    1.99599344522488    3.48714069500231
C         3.32865046814425    3.35544327741692    3.05315058496518
H         3.61359519067724    3.43629133398153    4.10850026590560
H         3.96745447669742    2.61229137949055    2.55146691602452
C         4.74216431378714    5.32744986996658    2.58705231791156
H         5.38157382675354    4.76720436574297    3.27400710561708
H         4.58714195591562    6.33199647203311    2.99617719413883
C         5.40120130370425    5.42528472918996    1.20212648108330
H         6.27096616046717    6.09370860723845    1.24713953960978
H         5.73841070843328    4.43913652733907    0.86493835500177
C         1.02544126807659    6.65412567664888   -0.92881957256290
H         1.64821282908450    5.99149447723382   -1.52841509807211
H         1.17533164232224    7.67860974980396   -1.25182170366422
H        -0.01408902812005    6.36302161709696   -1.06176808449947
C         1.40906232568977    6.51779224834499    0.51879539778301
H         3.24125799557566    4.60225336453278    1.45257175717390

