40
CSD_code = SIZPOJ | q = 0 | S = 0 | Stoichiometry = C15H16N4O4Zn | MND = 5
C         7.35750462673719    5.40510957364773    1.71856465328670
H         6.89948235659683    4.55728222000030    1.22919738846446
C         8.15877461106856    6.30077422991878    1.03360599668058
H         8.34788966403420    6.17207267041029   -0.01950559538278
C         8.71602017189765    7.36300950254043    1.73674168916775
H         9.35028006033263    8.08015461349340    1.23730607534069
C         8.45170852450167    7.48851668479465    3.08478668587306
H         8.87079109609532    8.29484956974837    3.66680586960530
C         7.63043035866228    6.53398346238361    3.69151955699682
C         6.35670925049008    5.48341608266874    6.78934194959430
H         6.68366576691889    6.15919912576389    7.58020335401185
C         5.57170491393187    4.31455775388201    7.12729046734308
C         5.16281274163477    4.04375759017029    8.43462765166657
H         5.42688320216917    4.72044966892212    9.23298753920540
C         4.42031872891880    2.90377594077721    8.68185394621114
H         4.09130339408923    2.67134790921642    9.68414279111052
C         4.10752321457364    2.06526677707004    7.62194133502727
H         3.53235331161674    1.16604809270721    7.77427368329232
C         4.55590558003448    2.40678386760274    6.35317270101149
H         4.34736052984866    1.78730738278125    5.49221716750581
C         8.45592211463364    3.03453501275601    4.66063155063541
C         9.54991835003701    1.97141760423119    4.68830900126548
H         9.47689345190801    1.42929577155746    5.62901022406372
H        10.52751755109249    2.44128811523114    4.62975953168104
H         9.40643837253406    1.27434871585515    3.86891443433061
C         3.91392710500360    4.54500645874626    3.19701673517463
C         2.60052000308682    4.67873658479019    2.44770579617341
H         1.82859299906929    5.04227949480077    3.11992629670168
H         2.31861848903487    3.72227958151021    2.01913475795289
H         2.73103721383972    5.40505018155275    1.64823945137522
N         7.09808797116269    5.52122973272575    3.01192996613425
N         7.32340092683655    6.61462686207340    5.02872298833973
N         6.64191555546237    5.63339139757979    5.56030431557347
N         5.26285981971589    3.49448297534424    6.11600619797739
O         7.34709638561481    2.67336368466216    4.17063090573547
O         8.67830650297799    4.15925896056274    5.11312566973891
O         4.24221921318562    5.39900262965202    4.03576816801092
O         4.65076033714208    3.56148074749923    2.93229362016004
Zn        6.05327357173160    4.11502311673686    4.22475455892377
H         7.81437196176983    7.29733965362720    5.60624092404072

