75
CSD_code = SIZPOI | q = 0 | S = 0 | Stoichiometry = C32H30Br2N6O4Zn | MND = 4
Br        0.18179572244498   15.65787211296288    4.34996111454500
Br        1.40945257737976    6.29642363124776    2.17005198062163
Zn        0.03018347207114   10.78987408938927    3.62579967794272
O        -0.05048685938344    8.79109503292893    3.55716178807214
N         1.13834704520306   13.27939919640713    6.05900258988914
N         1.93024562808681   10.87504574028931    4.45251790097134
O        -0.56494402850449    9.78199656705383    5.42092047163837
N         0.50899823653787   11.27646760357734    1.66775509783403
N        -0.25172659651642   11.92924115520897   -0.30217851503885
C        -1.01687088100445    9.68230411730323    0.51201817321787
H        -1.82915474017032    9.69881715360734    1.24410844902127
H        -1.44867961448529    9.62086178047529   -0.49461000804177
N        -0.22496802668954    8.50961002507273    0.78254399506054
N         3.20947302430853   10.35151311500720    6.17731749747554
C         1.94329122757682   15.26429549831349    4.96474052126355
C         2.94988749634397   16.15380738657407    4.65214901980162
H         2.71610805151289   17.03792662842068    4.07828741842446
C         4.24535215891687   15.91124653943084    5.07742854333467
H         5.03450323297602   16.60392277621658    4.83134852033685
C         4.50577328279881   14.77492584399374    5.82296338890999
H         5.50974002667159   14.57259157622311    6.16613430281442
C         3.49390516100695   13.88895430440636    6.13628753333753
H         3.72761657258337   13.01599671633543    6.72466419037830
C         2.17493812000589   14.10020205847063    5.71386975253210
C         1.33898981358114   11.96514098613534    6.61378729956929
H         0.35044897016148   11.51502444193936    6.74141527038323
H         1.82289816396398   12.04106973103790    7.59546252666916
C         2.13892748271018   11.05698295703465    5.73310789802880
C        -0.81398977241256    7.39888654140509    5.33530339773556
H        -1.80541666231428    7.12192490033668    4.98334069672810
H        -0.82362315441668    7.45497690620426    6.41940835407040
H        -0.10551212465107    6.65138217717403    4.98821651316916
C        -0.46058081962427    8.74339993359611    4.74576029973870
C         1.05424332203856   12.50885361015674    1.38453189524028
C         0.56757520199585   12.94378725389643    0.13581749943190
C        -0.25663223245319   10.96406520382492    0.65148311653508
C         0.91373057483102    8.21363095768890    0.08746614414468
C         1.24985692948877    8.82353928791212   -1.12819425125606
H         0.61337484328961    9.59811030659423   -1.52532070877719
C         2.37540670111545    8.45381197699722   -1.83760234877627
H         2.59923670255583    8.95154336800324   -2.76965191607680
C         3.21297128620493    7.45811064465358   -1.36643873498217
H         4.09285706779740    7.16866012613223   -1.91881320534054
C         2.90378131351109    6.82908023545511   -0.17205718980764
H         3.53367601921351    6.04159642528673    0.21358439013557
C         1.78000997277262    7.20384998204903    0.53433658721673
C         0.93486695005089   14.16128197955011   -0.41325729683963
H         0.54890927688210   14.49153613448613   -1.36538882404988
C         1.81835996458505   14.93087250892956    0.31696348154233
H         2.12949930748869   15.88900672824633   -0.07038348463297
C         2.32205353688165   14.49850776911039    1.54512791602153
H         3.01816782779277   15.13084037798222    2.07564420755150
C         1.95286817451168   13.29034193203313    2.09860784531492
H         2.33730672960632   12.95554216613495    3.04725438657068
C         2.90613741496674   10.00752949369573    4.01489135112788
C         3.17223791614227    9.50346782881016    2.74865811484614
H         2.55876882163850    9.78089155150534    1.90808462985475
C         4.24166472101070    8.64186083846746    2.62089049360765
H         4.47492529894537    8.23104887785379    1.64996855075612
C         5.03223469395698    8.28146723303872    3.71367204971805
H         5.85234987902148    7.59568356747087    3.56540654666520
C         4.79086089086356    8.78303776947833    4.97705620717392
H         5.40418362283948    8.50988038267801    5.82193382146195
C         3.72243106831004    9.65483995776851    5.10780941780773
O        -0.71232979301847   12.59031890911512    4.08543137431697
C        -1.84034135867259   12.26883306236530    3.62983073099570
O        -2.01061963901590   11.16511002996783    3.08387960029717
C        -2.97762636916679   13.25453719746661    3.75329817078408
H        -3.37430320399935   13.19251532900767    4.76444298618498
H        -3.76459272765889   13.01047580707665    3.04648362302809
H        -2.60527242720075   14.26276806475620    3.59199728595368
H         0.32378965888601   13.33872404483483    5.45364422156261
H        -0.20523721588977    8.25776090437936    1.76722184582148
H        -0.79513989416686   11.92865095444559   -1.14997617140427
H         3.53453698546228   10.30224999696532    7.12911997980551

