87
CSD_code = SIZQAV | q = 0 | S = 0 | Stoichiometry = C33H50N3Ta | MND = 5
Ta        3.16691111161595    1.72101958038659    4.55132239956644
N         2.66777089623068    3.24495077412697    5.35504197543450
C         1.10591346215105    4.98643566881512    4.81755171442261
H         1.69119408955531    5.34698565155354    3.97709864192428
H         0.53224878384401    5.81098741924528    5.23317527359016
H         0.43084558668511    4.21256039777580    4.46212888489714
C         5.82948379173628    3.14999724036766    5.15664307830855
N         3.69010378870299   -0.23717873864325    3.66603987205726
C         4.82686710957578   -0.87294822974849    3.58284677654240
C         2.09708559060155    0.38514242114592    6.11574752045610
H         2.52238665593279    0.57258192740630    7.10624663978591
H         1.03959259558627    0.66934859433244    6.15079857950831
C         0.46663605825684   -1.93990020174951    4.11064734612735
H        -0.16960750866675   -2.28934352479229    4.90806978581520
C         1.68280449445647   -1.34410726978357    4.39852340455893
N         5.37976939431363    1.88880854900525    4.69310590403140
C         5.70918466268522    4.01683232012399    2.77208936682012
H         5.52822119845471    2.95184027918721    2.57933661140250
C         2.04044389941889    4.38633739494294    5.88993980526401
C         2.48917510333192   -0.89895287740885    3.33865782621661
C         6.11288960488339    3.33286705141045    6.51755705762664
C         2.91687152421774   -0.52873957549629    0.86477104122455
H         3.88171112673185   -0.19169816268695    1.25936780581421
C         6.31232482883256    1.01032927955335    4.34205060596591
C         6.05936385017741   -0.26828138641331    3.87065361691160
H         6.92550315027020   -0.89070815493361    3.69638325479957
C         3.18351798766059   -1.61550702175753   -0.17927602668449
H         3.59740673470276   -2.50789925970784    0.28609881849749
H         3.89080299805571   -1.25335990574776   -0.92309385577124
H         2.26710980606590   -1.89498516464564   -0.69296106165668
C         7.15278785719674    2.02092558442702    8.41366219976233
H         8.06627078142832    1.92676496851774    7.82910870449751
H         7.03737765526490    1.12143023108751    9.01518307332539
H         7.26877673184706    2.86427395384354    9.08941657961221
C         5.99511142690913    4.20440693183490    4.24635891526056
C         5.93318739772781    2.20236668055852    7.50692646522146
H         5.78260112546340    1.27061722359509    6.94973124719548
C         2.07719810695697   -1.04807291433610    2.01016762981918
C         0.05276320816176   -2.09410800302233    2.79865425389285
H        -0.89785103834551   -2.56099394431264    2.58639920520117
C         2.18985468037844   -1.10635545774202    5.80321324751176
H         3.24844688712691   -1.40851498393066    5.83828897918159
C         2.23047258960225    0.67889053758337    0.22038247948268
H         1.26448944103238    0.39651870640348   -0.19205140946074
H         2.84646543156851    1.07806800717490   -0.58335374414130
H         2.07271965678250    1.46147609685779    0.96196370298014
C         6.52827009405962    4.58289099470703    6.95254449391294
H         6.73650231449598    4.74266661445569    7.99955558018182
C         0.84840573740597   -1.64594225040805    1.76333443512930
H         0.50813407606858   -1.76182744902929    0.74536750908070
C         4.67443249352867    2.45393334071547    8.33985400276004
H         4.78407957155113    3.35940331958775    8.93332469728934
H         4.49335222444595    1.62022840038800    9.01609075056540
H         3.82061911908003    2.56844257704639    7.67368741505846
C         7.76563565701003    1.40019835870658    4.48088175758788
H         8.41711898584250    0.61668244006152    4.10352621558977
H         8.00950638563752    1.58790144736088    5.52536233356670
H         7.96162791594985    2.31978388293005    3.93150550122582
C         4.43978137485993    4.78040563868744    2.38511408256682
H         3.59872164071866    4.41466408835491    2.97413506247021
H         4.22098431933242    4.63419975226323    1.32921751462960
H         4.56488637315296    5.84581256989973    2.56672887254688
C         4.90024942723908   -2.32010714595556    3.15390917158121
H         3.92086160435427   -2.79404430066530    3.18643171285365
H         5.58316922132311   -2.86699181281350    3.80241173152378
H         5.28291605277240   -2.38348402214781    2.13487493424003
C         1.18347274130135    3.98277998320194    7.10834276924183
H         0.48294656621661    3.20775254884193    6.80962189555129
H         0.63342517380575    4.84227393612308    7.48288712748501
H         1.81459125385326    3.59511502814907    7.90240887658876
C         1.45583356706411   -1.92669664545777    6.86825279177136
H         0.42551105581283   -1.59419743938872    6.97390938551524
H         1.94894105395048   -1.79930641680059    7.83045335562472
H         1.46325948344587   -2.98613012763671    6.61693446578873
C         6.68117249220851    5.63024478534973    6.06486949113153
H         7.00667433619711    6.59695674064123    6.41932184887692
C         3.06851657796921    5.45143003627499    6.31375320067802
H         3.71613997063082    5.05921229960582    7.09136593829656
H         2.55884241013574    6.33677422558545    6.68564684047208
H         3.68667689288572    5.72310737908367    5.46338600768660
C         6.41443060147044    5.43819568382420    4.72296650039717
H         6.53523229378885    6.26296639183997    4.03700272903955
C         6.88952276554597    4.45907630036659    1.90236222764288
H         7.04595823197028    5.53255037403992    1.96909599495102
H         6.69616486580070    4.20997806376188    0.86109724296346
H         7.80860081670161    3.96201501013424    2.20758964149930
H         2.12562794524031    1.97057670391936    3.24815970161986

