90
CSD_code = SIZQEZ | q = 0 | S = 0 | Stoichiometry = C34H52N3Ta | MND = 5
C         6.25958333761718    6.67552887776352   11.25030312570949
C         5.43603168881431    6.24652066622077   10.01735888481158
H         6.08764574414477    5.82614739848149    9.25779148600681
H         4.91217527287605    7.10219392765062    9.59925485146452
H         4.71402144162422    5.49147433858428   10.31489643163954
C         5.30397627889142    7.35459574146337   12.25446680351562
H         4.55592860136430    6.63644426945480   12.57881183802418
H         4.81086005328502    8.20427464524052   11.78934701893309
H         5.85945608460054    7.69884133448610   13.12174210910248
C         7.33589913672518    7.68770935681117   10.81697482228798
H         7.91397140921812    8.00356639514610   11.67961107361256
H         6.87077131249694    8.55650773509017   10.35807358877898
H         8.01429977632099    7.22687652408539   10.10651069315951
C         8.94150872870446    1.35273503664397   13.53936903158298
C        10.17601591486101    1.96346673071541   13.27187881097022
H        11.03026926356370    1.31077040096821   13.38684925934506
C        10.46357035922018    3.25639614707639   12.86561227416451
C         9.02639549355151   -0.14204700290582   13.75476751138985
H         8.04854504785534   -0.58117883765340   13.93904694260360
H         9.68596107662989   -0.36654123776569   14.59152324380640
H         9.45353666971177   -0.60481136274818   12.86469853427590
C        11.92840034818715    3.61233096885044   12.75120473394955
H        12.20491548457708    3.74774144875150   11.70681781398459
H        12.55296190476929    2.83363226094025   13.18032435868143
H        12.12698079932130    4.55135928401947   13.26473840001023
C         6.63235564073868    1.30455990050640   13.96283998380588
C         6.33077417096440    1.02861818280975   15.30448906038862
C         5.11679844677128    0.42020460316369   15.59722425166983
H         4.86780587404955    0.20148138851326   16.62468058764184
C         4.22184808816469    0.08741586337317   14.60097816551878
H         3.28080701174666   -0.37948833910972   14.85225095164267
C         4.53512912154233    0.34371699539427   13.27800407864166
H         3.83230616938265    0.06846066061912   12.50811603877450
C         5.73957966919838    0.93807225243194   12.94164099351701
C         6.13757355529372    1.23784495151026   11.51489409935262
H         7.19578371243565    0.96022803865275   11.38942400949761
C         5.99343081565098    2.73633719943265   11.26267946224853
H         4.94436683721026    3.01540654528258   11.40841353123395
H         6.24290192013094    2.94693075586851   10.21841612009350
C         5.34436185501948    0.43721548418858   10.47716495454110
H         5.37271777650679   -0.62778374063164   10.70214908713219
H         5.77841192965370    0.59141338008617    9.49091676043978
H         4.30767879952393    0.76440693293610   10.43975642021152
C         7.28154453797298    1.36510568836787   16.43310580947238
H         8.14006970602673    1.90625443384087   16.01965113042132
C         7.79112183745770    0.08858131879781   17.11079920749961
H         6.97011906816266   -0.44136541787212   17.58875447397989
H         8.52597831293045    0.33897160303352   17.87369036183830
H         8.25387790283242   -0.58459933578584   16.39472572218481
C         6.61743711267503    2.25505930124832   17.48823134013005
H         6.17200300058282    3.13634225309305   17.03603415285324
H         7.35702575220310    2.57687371211712   18.21937309116636
H         5.83601826019590    1.71299641000127   18.01559511812011
C        10.04102036985303    5.39609362943694   12.01506112701347
C        10.33301299398439    5.49230295326052   10.64568093147610
C        10.78084450050339    6.70440979788848   10.14186284749212
H        10.99591025340596    6.79953614730222    9.08849428915033
C        10.95798799212089    7.79728470867559   10.96890662629403
H        11.31008554153510    8.73294367752805   10.56055775992998
C        10.68090624564507    7.69055661296256   12.31780342479702
H        10.82074539546098    8.55007487611305   12.95581326127573
C        10.22743392565316    6.49715506759969   12.86157992820932
C         9.92339827458715    6.39989341918078   14.33987622762091
H         9.70888573240236    5.35228834451686   14.58327207168388
C        11.10624850147751    6.85382661708622   15.19916057753153
H        12.01033819704796    6.30606883135189   14.93956941995960
H        10.89026433829363    6.67794864503936   16.25097034889154
H        11.30251139019880    7.91475381001637   15.06785467309946
C         8.67227944184369    7.22025180620780   14.66256980149603
H         8.83732858505112    8.27222167732083   14.43951315148911
H         8.42151015191610    7.12786284762284   15.71736247119446
H         7.83812198639406    6.85528269053724   14.06508268800841
C        10.12545735928498    4.31095952576769    9.72289334680252
H         9.99464500449029    3.40929066749013   10.33165556890923
C        11.31439814697124    4.08148784948385    8.78662764145641
H        11.39158614187009    4.87413204872483    8.04706365107263
H        11.19115481619444    3.13926140615003    8.25643223495577
H        12.24951655461645    4.04235363919919    9.34227568669628
C         8.83842080376218    4.51490390403586    8.91995563628845
H         8.92132297954508    5.39576689241081    8.28641137145572
H         8.00363604945134    4.64819255088618    9.60729830968236
H         8.64728161691139    3.65129812094178    8.28561602788982
C         6.11593369087772    4.46106774715818   14.56809296011414
H         5.56941162927680    5.40101856001452   14.56578118957092
H         6.81014176848355    4.48631450524075   15.40910121891995
H         5.39723610537408    3.66025308777137   14.74641515580018
N         6.83433424653923    5.54053754025039   11.85238073202342
N         7.80600398734255    1.99667966668998   13.59395483669486
N         9.56146220996965    4.17250406616689   12.53971309657837
Ta        7.30661495771604    4.01412599273686   12.66346710266146

