105
CSD_code = SIZTIE | q = 0 | S = 0 | Stoichiometry = C52H44BN6NiP | MND = 4
Ni        3.03096130619247    6.13103745289249    0.88406107341484
B         3.05635562660043    7.24319833660170    3.80963772340941
P         2.53939685771504    3.98007888371169    0.89155659146747
N         3.84808753154684    7.83349337496435    1.46570196576557
N         3.86629757536111    8.07348929422762    2.78199567730814
N         1.48213477171502    6.66499992554036    1.96736644410841
N         1.64137837453068    7.10204149405388    3.20969019796058
N         2.43317490327992    9.20096754733069    5.20828044456183
N         2.98017623358939    7.98873858147551    5.12046927255653
C         4.57503545986888    5.79773203040783   -0.13948741995074
C         5.81780436692397    5.55828292743784    0.45463778954874
C         6.94759943313454    5.43934911909651   -0.34676694807226
C         6.86524789580037    5.54722352636593   -1.72153300690098
C         5.63913713999138    5.78639555728361   -2.31292315386222
C         4.50586545763426    5.91092519794380   -1.52581976244108
C         5.96406201524517    5.45003174843418    1.94611325386504
C         4.60560121475200    8.76055643640900    0.86980181016727
C         5.13683413940171    9.61042092089734    1.84351369707097
C         4.63212662269122    9.13741085248185    3.03613617829513
C         4.75129542283736    8.87286207645127   -0.57851409894183
C         6.00549237157619    9.03948445037719   -1.15621242787172
C         6.12784916237521    9.16540426769126   -2.52684849315326
C         5.00137023902830    9.14120824289138   -3.33239250862448
C         3.74823030655882    8.99333064342695   -2.76207020197029
C         3.62203380158200    8.85898962149880   -1.39220085599735
C         0.17268477986798    6.65877735523834    1.68961909198831
C        -0.52556576340374    7.10515988055734    2.81884493962565
C         0.45137229313508    7.37840483900230    3.75260980732655
C        -0.32504445004975    6.27286981374772    0.38090321544002
C         0.52576823631432    6.32140797038331   -0.72396920815427
C         0.05868626280488    5.99600963284635   -1.98312532100686
C        -1.25511089477360    5.59230401470223   -2.15400016996982
C        -2.10311034989361    5.52626062875176   -1.05994309081597
C        -1.64727731785296    5.87178812827332    0.19711673615391
C         2.51873752746649    9.58690942453198    6.47835321549855
C         3.14892788194986    8.57670397071826    7.23890054000427
C         3.42252064166914    7.58523939707546    6.33109590072949
C         2.01083585071634   10.87820666318659    6.91063874138769
C         1.46604331539305   11.75519204459934    5.97175963962376
C         0.98142153661246   12.98772918530398    6.36084582487401
C         1.03097236439005   13.36817922719745    7.69280062906569
C         1.56847240222516   12.50456296355984    8.63247581113179
C         2.05492823818405   11.26937945774347    8.24753135485088
C         3.85120523922583    2.85791920225340    1.50979073837656
C         4.89530168275485    2.60802005282071    0.61977393954675
C         5.93806262970509    1.77714770473126    0.97802809323135
C         5.95099468755315    1.17923571084005    2.22853379722143
C         4.90794352962747    1.40739127570522    3.10823103890924
C         3.86009134717303    2.24134538695413    2.75332495962196
C         1.11584770564853    3.67939960929999    1.99585808582463
C        -0.11822171434835    3.26707258093648    1.50561173767746
C        -1.20295897690773    3.15393315806395    2.35739280207632
C        -1.07501111066125    3.46530780352756    3.69988507471969
C         0.14433598749770    3.90293270723438    4.19093064413662
C         1.22947567007762    4.01655613553606    3.34330570493430
C         2.09282300176040    2.93341635430647   -0.54141532584917
C         2.06897395325639    3.42461150929653   -1.83661655160312
C         1.73922210655274    2.59503036586714   -2.89534821940440
C         1.43476003947314    1.26566556974940   -2.66568154187350
C         1.46979529751576    0.76341581190439   -1.37324643573880
C         1.80013338168365    1.58906632595495   -0.31708855485645
H         3.55737313740121    6.16923791537519    3.97566425991648
H         7.90382706352994    5.25942799383455    0.12544615284353
H         7.75320095385737    5.45001911572871   -2.32889365773123
H         5.55762743795413    5.88234820873973   -3.38591234549405
H         3.56730340546516    6.12718008013550   -2.02071458096270
H         4.98433274483743    5.33950681034507    2.41597117186248
H         6.43507652554602    6.34988435132640    2.34301061238289
H         6.58266600151823    4.59525845053840    2.21536674535068
H         5.77187743455121   10.45776303036866    1.68658339816553
H         4.76962012867910    9.50546744832049    4.03217414300995
H         6.88252747390914    9.05116734856712   -0.52634648830441
H         7.10566969558121    9.28365980670103   -2.97052420608285
H         5.10010756223312    9.24356351621296   -4.40336882525760
H         2.86676011370598    8.98656802057303   -3.38773425692145
H         2.64557579237303    8.76255527300113   -0.93782743642848
H        -1.58275161798624    7.23239753438332    2.92807898824479
H         0.36393470134175    7.76291715313168    4.74796681945963
H         1.56181301491386    6.66178487064668   -0.58603192873467
H         0.71059014288397    6.06875597407882   -2.84194923889396
H        -1.61911430329906    5.33581205072402   -3.13785659810820
H        -3.12779467807253    5.20998949142199   -1.19178028786412
H        -2.30996169489477    5.82151044040474    1.04776778016327
H         3.37125638095284    8.57562595669863    8.28639673586114
H         3.89686450949870    6.63218199460163    6.45762765987259
H         1.43573222201440   11.44400561451096    4.93894812244935
H         0.56263064411068   13.65904004283518    5.62419252830142
H         0.65252266024141   14.33349522694885    7.99719958325309
H         1.60864736469466   12.79670773193608    9.67261856531694
H         2.47052767116902   10.60472247566167    8.99036543077694
H         4.88280080046809    3.07111662338822   -0.35709809271490
H         6.74256872578089    1.59579874283379    0.28078954968672
H         6.76726951179824    0.53174723323517    2.51270822779296
H         4.90490554553498    0.93216163959607    4.07850290239223
H         3.04827135328854    2.39341081679054    3.44839862452608
H        -0.23835520388605    3.04452357727440    0.45525781691477
H        -2.15616560713334    2.83141563206265    1.96450973639361
H        -1.92598562688365    3.38309260898140    4.35960635584125
H         0.24641801717202    4.17021169050216    5.23245806411255
H         2.16577664094140    4.40196378781717    3.72122150588638
H         2.31764479747320    4.45704910045083   -2.01132847090866
H         1.72165402395211    2.98834908000848   -3.90106310974862
H         1.17558087359631    0.61707199922067   -3.48933910205144
H         1.24077768887110   -0.27634839617179   -1.19091926049098
H         1.82981072789301    1.19527756399028    0.68963551943818

