76
CSD_code = SIZVAB | q = 0 | S = 0 | Stoichiometry = C32H33Cl2N3O4RuS | MND = 9
C         5.20870890431163    5.75293688395546   19.82484367690612
H         5.20806156803519    5.70016522059764   20.90725836603199
C         4.21443233598807    5.14108442276874   19.08574497995935
H         3.43997292654117    4.58813446174654   19.59398066787254
C         4.21592790084241    5.25732839729689   17.70059624557129
C         5.25001212743697    5.99263781865413   17.12514682607319
H         5.29627200363771    6.11823576298814   16.05459712156002
C         6.21133109293234    6.56881829008866   17.92919604042921
H         7.00948727398733    7.16637555433800   17.50443057025485
C         3.22759925230815    4.52945321217619   16.82664118500682
H         2.34933496593020    4.21706435557842   17.39339980250623
H         2.92464112308112    5.15852277349955   15.98575850442398
C         4.53263000361796    3.39317013565362   15.09003142979270
C         5.45718974452444    2.27341722248703   14.85993979096835
C         6.02605644397133    2.09241201929635   13.63165593992229
C         7.01369264161549    1.04462756612204   13.37370722229725
C         7.89106019850879    1.14063279542233   12.29249795950552
H         7.80406405207080    1.98457154658315   11.62686900386750
C         8.85014875467462    0.16645636162730   12.09076279379683
H         9.52420679574658    0.24819299913137   11.25151992973890
C         8.95447563048797   -0.91399113729407   12.95528055860324
H         9.70614141716075   -1.67046033755244   12.79039943500975
C         8.08514688285712   -1.02328141946850   14.02920058060598
H         8.13402543777298   -1.84850563343925   14.72188769380064
C         7.12974417615716   -0.04992690992811   14.22383586303933
C         6.77036989746533    2.02523304691011   16.90970937729890
H         6.89409700667125    1.26817330590922   17.68453371049333
H         6.36278255669006    2.94405676887676   17.34401094838888
C         8.06619824475881    2.29734206776825   16.20028038275136
C         8.23671830330056    3.48025850051175   15.49057649185169
H         7.47298125952078    4.24463977696223   15.53155349547269
C         9.37686424560482    3.68193311175644   14.73212100168707
H         9.49724858356460    4.60092641197073   14.17866266917757
C        10.35562219271607    2.70457741853374   14.68028458846630
H        11.24191721358440    2.85908040767263   14.08369372089209
C        10.19901210794523    1.53085884933891   15.39892569901814
H        10.96518271255101    0.77102496480000   15.36653642262929
C         9.05776671740161    1.32578614203363   16.15333805598630
H         8.92097138140018    0.40653680984153   16.70320461789908
C         9.68914867323540    6.56803680926320   19.55998804061408
H        10.11320651178181    6.59914273023153   18.56350166193455
C         9.00477654638768    5.41782876714812   19.99610345247099
C         8.87373565381874    4.22015906888277   19.10115991944085
H         9.74262023504050    3.57282632775971   19.23045748046054
H         8.82875962661211    4.51022361103870   18.05319422099752
H         7.98589111987731    3.64026195329370   19.34625892047904
C         8.53697038497597    5.36313580072326   21.33657377251544
H         8.07569670017326    4.45486564413554   21.70640779407995
C         8.74043727467162    6.45155631376224   22.19959017455432
H         8.40942030891991    6.38101041128089   23.23065711438828
C         9.44276880627819    7.61149939692080   21.77888373729405
C         9.71889266984719    8.74151889463086   22.74356062408181
H         9.25955644570377    8.48441773351707   23.70490489608449
C        11.22661359872829    8.90664010819532   22.95658678892019
H        11.67220523563344    7.97454057561002   23.30005536979519
H        11.41022906957900    9.67310816570140   23.70512584433876
H        11.71894304226124    9.20629715862033   22.03423618318205
C         9.08238144074164   10.04216730831991   22.24792777751921
H         9.54796151417366   10.38305157403191   21.32614523312146
H         9.18901050974699   10.82153900831651   22.99827677679000
H         8.02025368964457    9.88870557718633   22.05805094994532
C         9.88024362499208    7.65964461209719   20.44122747827885
H        10.43681554623542    8.52028510950758   20.08746218553066
N         6.19734161555122    6.45820380784957   19.26397026804547
N         3.88720175127564    3.36553373880319   16.27171651545869
H         4.06154482392699    2.57223826577452   16.87071359742916
N         5.77766523178215    1.47292497929360   15.98358082056225
O         4.36900579385838    4.29356492036942   14.26203485183384
O         5.75079341125175    2.88665075805347   12.59819581091036
H         5.14965375271113    3.61099888878061   12.92320519372667
O         4.70689440350637   -0.58168797461581   15.07312440745731
O         6.54228238029688   -0.82015719102339   16.69403302133952
S         5.97096036811711   -0.13957536226824   15.57047230833915
Cl        7.34599174753189    9.18422686723627   19.08237180601342
Cl        5.92435390259549    8.04037287989544   21.75139257344079
Ru        7.64187651108034    7.25034281653524   20.36703905908403

