55
CSD_code = SIZVED | q = 0 | S = 0 | Stoichiometry = C22H24FeN4O4 | MND = 5
Fe        5.13581531822702    8.00561033769507    4.25800940409381
O         5.96094505222043    6.78720461145173    5.50122063745765
O         3.58726980626345    8.17529814227832    5.38920939553308
O         9.74502702149676    5.10577655938039    5.39301504554464
O         0.26278073353014   10.60001345444050    4.92754384452147
N         6.69098528611873    8.03097000113892    3.18744904425223
N         4.47182662769462    9.32363556681419    3.08055329966998
N         4.31618290335875    6.53317725510092    3.23177453073775
N         3.53789156416794    5.17123828279969    1.68780273928212
C         7.10202339942617    6.26871495931927    5.49592198434321
C         8.11676628618795    6.59742292327149    4.53529984442426
C         7.84762011717907    7.47587132357467    3.47451027140036
H         8.68258487711711    7.70735389976113    2.82258049295234
C         6.51591363517433    8.77953219356272    2.03278281816801
C         7.38553848034573    8.83325930321628    0.94368016180898
H         8.30762853680690    8.27245682226811    0.94910706472185
C         7.07377183373754    9.58670108956110   -0.17174622098968
H         7.75958766216380    9.61825005769700   -1.00491634939287
C         5.87768347941774   10.28463129746969   -0.22915409436113
H         5.62892048798485   10.86150279672777   -1.10714158022510
C         4.99039017052013   10.23066574064278    0.82863279489791
H         4.05155836093184   10.75633881784007    0.74449511542721
C         5.29132352693265    9.49383182995073    1.97401877286710
C         3.39629961819988   10.05910027619322    3.25529390103558
H         3.23202873445018   10.86909525825435    2.55357275902329
C         2.42295104625002    9.89935795665387    4.25383542943033
C         2.57379579434425    8.90436515056462    5.27754044481703
C         7.38185329564489    5.29444460989685    6.60820640583354
H         8.25932873302325    5.59447426935851    7.17508051256265
H         7.58930613265114    4.30841408207537    6.20030233604403
H         6.51052614603103    5.25437938257743    7.25788643905728
C         9.46125933574706    6.03132099762429    4.65112087355869
C        10.57042928833900    6.63666455569163    3.79962452459378
H        11.51353611756469    6.20873135368707    4.13203497859734
H        10.43299197869375    6.38215572787043    2.75062857440309
H        10.61134690786552    7.71740281762280    3.90853846179059
C         1.51433813211992    8.71418303254164    6.32915960958443
H         1.29875779285783    9.65076709748991    6.83670434582929
H         0.58660177428693    8.38028847041638    5.87135735727464
H         1.86705381681021    7.97254471005429    7.04225361348515
C         1.25256560317374   10.77740430463629    4.23711411012057
C         1.27120830505716   11.98252068927147    3.30470118521205
H         0.39681268545479   12.58869470242892    3.53067767704394
H         2.16636006714981   12.58247403945161    3.44760745693121
H         1.20725020504385   11.66697150650860    2.26529754685440
C         4.20996551100523    6.31225650190610    1.93750480040458
H         4.60240552798363    6.94814043827615    1.16884171254433
C         3.68687602070179    5.49136939725684    3.84484934258498
H         3.63672451141730    5.44146394398183    4.91262217221897
C         3.19990148766253    4.64045537337429    2.89819583058995
H         2.65432596578456    3.72355132307299    2.98382755891108
C         3.22690273744050    4.61396773352405    0.40229296883509
H         3.65141843549873    3.61269405150451    0.30926309480779
H         3.64320445502485    5.24965145904178   -0.37655290055443
H         2.14553866970875    4.54823752122880    0.26726785942414

