67
CSD_code = SIZVIH | q = 0 | S = 0 | Stoichiometry = C26H30FeN6O4 | MND = 6
Fe        3.33196116246857    2.51484633396959   -0.77936061399578
O         5.04611490942805    3.24545579564141   -0.18676661804856
O         4.22543259306037    1.22171312353488   -1.94407636286251
O         5.78171168614333    5.56252624300456    3.14434576246368
O         2.64142253451167   -2.21923127216106   -3.57174384457177
N         2.38346385000714    3.70189611407849    0.35107515135764
N         1.63022277509758    1.83882592381394   -1.26285197866450
C         5.27316532886776    4.04532400419041    0.74886036266087
C         4.26195018411371    4.61734399620649    1.59058549071399
C         2.89317755436204    4.40576180735604    1.32656903420953
H         2.19991864935013    4.86931532007584    2.02053966854218
C         1.01447174622830    3.62747758293187    0.15094839932812
C         0.05650559880587    4.48411079328290    0.69107427973310
H         0.35097434950623    5.29601225777723    1.33878024956271
C        -1.28281093978916    4.33308612428917    0.37991576036489
H        -2.01007165530240    5.00936356874242    0.80405712036793
C        -1.68682870319746    3.33469101233084   -0.49068337744269
H        -2.73018512325708    3.22983499880727   -0.74863980329344
C        -0.75290416866739    2.48264542410085   -1.05211905347322
H        -1.08650168331209    1.73920465669086   -1.76027545080588
C         0.60001463845359    2.60318210256608   -0.73919126702506
C         1.39815424946055    0.70327062178084   -1.86542999144799
H         0.37345274879547    0.34695532883355   -1.87677196650344
C         2.34670104316466   -0.12768563513147   -2.49679871470106
C         3.73303189256102    0.23906853510102   -2.54310420449937
C         6.72458665640303    4.40494477708133    0.95277790153249
H         7.07188841506865    4.03199932870101    1.91297263061193
H         6.86064853269977    5.48284483680320    0.96348973445131
H         7.30743710000339    3.95886376544255    0.14921479963685
C         4.63277068723471    5.42030054291458    2.74750385625836
C         3.52587159915112    6.13039655161790    3.52161096456293
H         3.99900730705249    6.74321253079388    4.28592471637423
H         2.87113277648975    5.41344190287943    4.01245496973473
H         2.93771998665711    6.77160895076418    2.86953427978174
C         4.70802314284376   -0.57341809504041   -3.35958701056611
H         5.67240034546838   -0.06903680600833   -3.34878009934017
H         4.35602201496245   -0.69220727909058   -4.38059419256509
H         4.80764652840558   -1.57158178938074   -2.94065696806630
C         1.89419420506639   -1.37764440197024   -3.09053197656266
C         0.39650343271586   -1.66945266104258   -3.11318802725703
H         0.25159995933455   -2.60708132372395   -3.64553315717741
H        -0.14967274416682   -0.88388264884200   -3.62990221123976
H         0.00437952673973   -1.78101453392596   -2.10461328016856
N         3.31903202704758    3.80174111253474   -2.26140882139498
N         4.17387881284771    4.90008280870059   -3.96284591931609
C         2.36511946833966    4.62862889243199   -2.76700225645634
H         1.38221266013261    4.67546778076621   -2.34514149243453
C         2.88225961087201    5.31743476671148   -3.82484613394528
H         2.44827871772434    6.05059299814327   -4.47324830896308
C         4.39100595452300    3.98658296837944   -2.99767649896732
H         5.31439899686087    3.47040332019329   -2.84092542356600
C         5.11026872343864    5.35318166221962   -4.95091859359196
H         6.05451706848798    4.82988664933496   -4.81570183592542
H         5.28132128179192    6.42702027394524   -4.85155599909945
H         4.73250442770919    5.15164852543339   -5.95529020579021
N         3.42432543417076    1.19774756320336    0.68719794159236
N         4.35196978516554   -0.33335134922321    1.96144064201984
C         2.50296047123113    0.76947356511299    1.59078705268974
H         1.50875870860816    1.16714372229501    1.60919631368136
C         3.06544470560557   -0.18254348952229    2.38917431470759
H         2.66628119733537   -0.74957629048303    3.20485017824449
C         4.52170910515630    0.51949093316650    0.93427169798135
H         5.43080885940706    0.63710157989637    0.38281520138625
C         5.32610100279257   -1.23476289223155    2.50668283261293
H         6.26102074433727   -1.12387573995547    1.96145582118101
H         4.98224653738619   -2.26718300675128    2.41691011492767
H         5.50087100607295   -1.01452476410231    3.56164441645166

