55
CSD_code = SIZVUV | q = 0 | S = 0 | Stoichiometry = C22H22Cl2N2O6Ru | MND = 6
Ru        6.73496402344858    8.27004342293677    3.70410778768533
Cl        4.30524237587678    1.76158626271822    3.20463606950864
Cl        8.20834544135668   14.02541470444513   -0.16247049389971
O         4.99575588255783    7.28227966620256    4.43335426596056
O         6.12304770630459    9.81550749813941    5.00116060269735
O         7.82940612160395    7.48555920770742    5.27942186950307
O         5.58623907281790    9.11360213355898    2.18968703273341
O         7.53061685902194    7.17833999846843    1.37236381640488
O         9.33047811339941    8.52330709002806    3.20373432734682
N         8.26258112461201    9.12463261951921    3.09236591252820
N         7.05630501695994    6.90936998494097    2.48237876795806
C         3.50373426945784    8.11234880469658    2.78012040655274
H         2.47003139195688    8.06823344520939    2.47207732407756
C         3.85300270992845    7.37615127676057    3.91943514200746
C         4.35272900425048    8.91554447243701    2.01592872404022
C         5.24661809014876    3.79722059047659    1.71435676123732
H         4.79510309214605    3.29507022671363    0.87328581010509
C         7.26133582938162   11.27546263526435    2.55019177803318
H         6.51435316230150   11.13175188290477    3.31649226757488
C         6.47148501532718    5.64677305272027    2.64692927140456
C         7.25391711971309   12.41859911747086    1.77694744482474
H         6.48999587271202   13.16796693276823    1.91447425141901
C         5.91443134818444    4.99062981417011    1.54433474994504
H         6.00106406603622    5.45271408122226    0.57160213389000
C         8.26175949698477   10.31822282593865    2.36325412393695
C         9.25757165663475   10.52965269414584    1.40223363162318
H        10.01479296297780    9.77045302291782    1.27430422220493
C         3.73549234026991    9.64477876257785    0.83976430138614
H         2.99570460171810   10.35887231708170    1.19515376181329
H         3.24019237984693    8.93830337962939    0.17838456743884
H         4.51403954939663   10.17187358554761    0.29445620616767
C         6.39365389905282    9.90773710120942    6.22884990866182
C         5.74617735344676   11.05328282022526    6.97987183049407
H         6.50969933763462   11.75807839556587    7.30307455955886
H         5.22926042471031   10.68143591984800    7.86089001671518
H         5.03859177189149   11.56439587436483    6.33187573406507
C         8.81336602072930    7.19285462258081    7.39764986986695
H         9.34398525765242    6.41659774951371    6.85285400954758
H         8.21554315265445    6.73847276374859    8.18521181067664
H         9.52969015325390    7.86894615468103    7.85691989601758
C         5.74275538662067    3.86438634722327    4.08200852195719
H         5.67876269548776    3.40452492712663    5.05562661556376
C         6.39805640712826    5.06802562336350    3.91673345535117
H         6.88283303799625    5.55426888196857    4.75025113877947
C         5.15547971187788    3.24470178473542    2.98623535266121
C         2.74450392559849    6.58852265650540    4.58791038878234
H         2.40957857046439    5.79679954347669    3.92059126037009
H         1.89756628742294    7.23305712657901    4.80853008767275
H         3.11701244173288    6.14503547429925    5.50732646159853
C         9.24083037428385   11.66430614012183    0.62149120657010
H         9.99520762133179   11.82435132819680   -0.13272834394791
C         8.23538799519254   12.60451721809453    0.81123104174614
C         7.91427843616540    7.95380512755711    6.44521093879851
C         7.25296972120342    9.07677278327269    6.95147556477015
H         7.41247431913919    9.31615812641758    7.99144183561367

