59
CSD_code = SIZWOP | q = 1 | S = 0 | Stoichiometry = C25H28ClIrN3S(1+) | MND = 8
Ir        4.36770505469766    5.77227423302376    1.24958678632543
S         5.44955462765436    6.99360859610401   -0.62333963874029
Cl        6.48478947255770    5.54860589982373    2.23069367030815
C         2.50644369950959    5.03972066829697    0.26553359478232
N         4.44692748918755    8.82583765763251    1.79590635609440
C         4.57565713473563    8.56325839137832   -0.65278682802501
C         3.21783629365660    3.94607788222474    3.78254964972234
H         2.92341798857068    4.80774141483800    4.37636125906295
H         4.20759668420448    3.62565728348462    4.09664277615965
H         2.51545237267003    3.13467911040955    3.98109223402782
N         4.33526413026840    7.54255904166206    2.19622998700280
C         1.14150359537908    5.84304575027181    2.33440818353876
H         0.34075947469252    5.14267629915026    2.57503048874774
H         0.72998851205100    6.62327871480090    1.69958282340330
H         1.48432885075280    6.28721070670805    3.26684378120993
N         4.38210705230689    7.48260924379872    3.46937126710961
C         4.83160338552476    7.89153651430500    6.27135741048138
H         4.87962078271069    6.89527315695340    5.86072761010845
C         4.92169003163779    2.45736367466137    1.59345484612176
H         4.38320498809006    1.63852738846175    2.07035362135059
H         5.71179545356345    2.77755957853690    2.27086381217952
H         5.37958854413624    2.09032461715109    0.68002184084384
C         4.94563730912999    8.10952732412861    7.63050037657381
H         5.07786655587497    7.27326383423827    8.29973773225791
C         4.61606112421968   10.26643627177491    5.91478702276011
H         4.48118217278438   11.10778571022790    5.25178810774444
C         4.03546507609601    3.59633687482170   -1.27797433599770
H         5.05000788553131    3.20932684563433   -1.23227722682962
H         4.00128186374974    4.39050401029919   -2.02015205827494
H         3.37777935612153    2.79294441234084   -1.61278734793627
C         3.26243361291378   10.99804202724879   -0.92588004604672
H         2.74983214854725   11.94188438484096   -1.02065877469883
C         4.58800941894319    9.59571566419627    2.90350417800550
H         4.74410148099701   10.65156310238386    2.85593721735290
C         4.73016703543076   10.47503335553072    7.27590474623255
H         4.69028374755722   11.47943720494284    7.66891048377006
C         4.27199777023345    9.06771655661381   -1.91070401891409
H         4.56189017823299    8.49551216939365   -2.77774907645157
C         3.58232662901044    4.08176144347974    0.05696505111110
C         7.09524421456017    7.57998333101482   -0.12852600041440
H         7.71878385063874    6.69691687316114   -0.03124710604974
H         7.05281568108779    8.09386680853833    0.82584556030440
H         7.46940009307073    8.23066106758530   -0.91356507384957
C         4.66594372250101    8.97041833666191    5.40277270747424
C         1.69702322273140    5.65760954311523   -0.82349035672203
H         0.92641465817187    4.95630778603249   -1.14623170651320
H         2.31411871280770    5.89633886769985   -1.68669290482356
H         1.20541534587598    6.56699615890720   -0.48627924678589
C         2.24442727137063    5.10702970528465    1.65584170460536
C         3.54636810220962   10.50059288211103    0.33126449891068
H         3.23182876421058   11.04906150442144    1.20496062678909
C         4.21196216919809    9.28393754933148    0.48713345804274
C         4.89461700941173    9.39968033184426    8.13494534652011
H         4.98486479938203    9.56867314443744    9.19684950295694
C         3.62420162630782   10.28046973754449   -2.05450105381827
H         3.40357402009387   10.66120181350650   -3.03847922655294
C         3.97557776085309    3.57274065787071    1.31621686254939
C         3.20757865139815    4.26846759540847    2.32952230024533
C         4.55168133960884    8.72142928981451    3.97822254462213

