62
CSD_code = SIZWIJ | q = 1 | S = 0 | Stoichiometry = C26H30ClIrN3S(1+) | MND = 8
Ir       12.10427524666355    6.50575243845178   11.69371914375539
Cl       11.88043750720413    8.55978108633657   12.80926328436418
C        12.49118027919917    7.54610241674657    9.99941832481767
N        12.37848206297783    8.84363489611862    8.21482809383931
N        13.65483640247501    7.57016674646701    9.27249243589095
C        11.65298731648400    8.38896545660416    9.26060473259392
N        13.58076119028498    8.35603266594931    8.21488532595677
C        10.23219358701492    8.72197107518152    9.40250894794126
C         9.34196639804802    8.26057407924782    8.43353078237344
H         9.70265781268685    7.65627056073165    7.61249849384463
C        11.88679999962177    4.32662427070911   11.45930952431839
C        10.07596547827550    5.69174366132810   11.88375946683600
C        10.74708883939847    4.93010461458157   10.86203111293542
S        14.50462202502804    6.61819208487791   12.19782136761825
C        14.81538629504778    6.78104186418239    9.40420127771093
C        15.26896088245001    6.26271738283875   10.61697640936202
C        11.97264807648799    9.77052787040680    7.19935826766871
H        11.44943205499338    9.25158943749717    6.39508699462989
H        12.86278822183722   10.24624143743351    6.79239305721757
H        11.30668849538490   10.51607293906248    7.63088686040588
C         9.76404390937842    9.50034162276907   10.45434378523856
H        10.45358645951179    9.86429001390256   11.19759503547298
C         8.41510836144197    9.79934252766890   10.53997506897887
H         8.05650502141994   10.40561369059570   11.35702803194109
C        15.04914002767527    8.33968312137988   12.39445925605485
H        14.75744829753421    8.93239009025862   11.53413158896203
H        16.12734628759182    8.33760610645129   12.52428869215653
H        14.55453099549376    8.72205392212064   13.28201073267891
C        16.39252246695165    5.44726999612026   10.63950296295508
H        16.72498611632510    5.05311636517695   11.58708567052910
C        15.52549547530666    6.49343778506675    8.23868168642845
H        15.17590367420832    6.90815272549325    7.30700724898315
C         7.99535526739923    8.55877168389393    8.53042965285022
H         7.31012745405875    8.19202245529354    7.78151889083100
C         7.53014667675389    9.32920555157712    9.58436474051156
H         6.47956909654671    9.56375566163493    9.65612831042623
C        17.08303077164276    5.15699953720264    9.47735121667387
H        17.95534468662512    4.52451085947594    9.51263422860180
C        16.65130044984836    5.69411757159654    8.27500454726885
H        17.18596783621352    5.48540131226828    7.36231258067778
C        10.73925194008034    5.41744737375031   13.14724812066534
C        10.22755013606152    5.87846833270409   14.46785473499980
H        10.88756788870336    5.57613967277630   15.27585115692890
H         9.23962435834627    5.45409274900525   14.64670724802433
H        10.13315877222594    6.96363210317792   14.48795086741645
C        12.79944908379874    3.34150327479418   10.80893901610393
H        12.90982200068602    3.54581188884097    9.74622235274931
H        12.38869650192569    2.33677754279883   10.91838610171768
H        13.78590454139833    3.35173166045843   11.26736487505361
C         8.73865222013170    6.34123701166334   11.77643089045898
H         7.97405066310725    5.64423099419876   12.12381805655614
H         8.50863827550090    6.62258390280409   10.75282065529760
H         8.69078591651598    7.23061625729048   12.40039588065590
C        10.25224534036913    4.70832063204384    9.47147757953188
H         9.60746061242381    3.82854790610420    9.46034661979355
H        11.07247332324896    4.53187937483367    8.77959250082240
H         9.67068171365487    5.55773643502982    9.12284636055915
C        11.84643342727014    4.60347106211422   12.88778394418912
C        12.77323820830461    3.99862759364346   13.88616200375213
H        12.43159477483830    2.99329323946160   14.13694839938329
H        12.80644588254177    4.58521701803905   14.80074118698154
H        13.78445691538161    3.92004438975926   13.49098361606424

