48
CSD_code = SIZWEG | q = 0 | S = 0 | Stoichiometry = C18H22N2O5Ru | MND = 6
Ru        3.42236643279979   11.30748487633900    8.45816781489554
O         2.54622766594171   12.92784388494416    9.40469691849492
O         2.37102059100129   11.93191541922877    6.73527854090336
O         4.25980532698642    9.74145136217475    7.37335635378641
O         1.76762150910194   10.14033577360574    8.79661199653545
O         4.78354587505423   11.71177029900604   10.73405252885194
N         4.13068232476722   10.86364899060841   10.10254467625320
N         4.91995187612578   12.42413110934084    8.06263144129126
C         3.86291559542227    9.39660542127686    6.22539206645402
C         2.70024065341853    7.56075470422350   12.21871089872137
H         2.30050927143618    6.71620613590645   12.76069963934931
C         3.69939178348883    9.73368500539810   10.82026389068059
C         2.23807323465127   11.22140367628202    5.71156789088393
C         3.42860782688001    9.84446689436362   12.18638829826824
H         3.60669030828576   10.79359219212881   12.67073290770073
C         1.41280188530881   12.87607838176585    9.94734977230361
C         3.49467216922531    8.51943500315228   10.16353037193531
H         3.75104290472338    8.43509566483543    9.11790132047428
C         5.73436613271208   13.23203015151271    8.00715089030711
C         0.75247800890504   10.52321536504547    9.43413837311934
C         4.50599515139482    8.13954931493626    5.66621548029257
H         5.29864751132308    7.80907223667996    6.33267337593482
H         4.91672568858266    8.32952797482365    4.67795321557176
H         3.75844697235556    7.35343914373230    5.58185491502504
C        -0.35352896308684    9.49903326148752    9.60244956949098
H        -1.30606066146312    9.90707922251919    9.27416628114419
H        -0.43767283021376    9.22605402147521   10.65258111844284
H        -0.11587669233783    8.61107590109153    9.02270694618191
C         1.26073956612103   11.71644621212625    4.66065457878033
H         0.46695236212799   10.98569201444126    4.52168235075612
H         1.76916817806383   11.85519795120437    3.70927909196128
H         0.82876100878732   12.66046484214299    4.98263405825820
C         0.54713555735557   11.77869182125614   10.01382887207339
H        -0.38837876581561   11.92743334068308   10.53260876494497
C         2.99917855458988    7.44000540541769   10.86983394577844
H         2.84162394445970    6.49713169444103   10.36718434458360
C         0.93477833708083   14.15881252233704   10.60212223465586
H         0.70654368815497   13.98000253567643   11.65007535637659
H         0.03305998772610   14.51417958754684   10.10847352439120
H         1.71195279921495   14.91389344855228   10.52287579057838
C         2.92025747185168    8.76215399730093   12.87560248637727
H         2.69317022419882    8.85345817685632   13.92753502105609
C         2.91710331589914   10.02938189642764    5.42048942619707
H         2.69829310274551    9.56499186477194    4.47032431207381
C         6.76157874388921   14.22952758438039    7.94145154849014
H         6.39915799071117   15.09535311882278    7.38823004208015
H         7.64409976605627   13.82542894318593    7.44625222043310
H         7.02273661396163   14.53167165454424    8.95529453686741

