47
CSD_code = SIZXEH | q = 1 | S = 0 | Stoichiometry = C21H21N2OPtS(1+) | MND = 4
Pt        8.07333115546565    8.22563095995963    1.05100609982923
N         8.35576677951015    6.79745349595014   -0.29961686983328
N         7.78212802320578    9.60035298451633    2.46169600697502
O         7.11607565731408    7.00327919655332    2.34625793458407
S         9.08303144596404    9.68014052078574   -0.43619815754433
C         6.75777653465064    5.79066771823628    2.08293408400819
C         7.00166655607781    5.10761970040053    0.85037387538692
C         6.49133848058585    3.79113925101375    0.69065397493013
H         6.67246577747656    3.29004361275150   -0.24960845468506
C         5.80114057705698    3.14208854789066    1.67553798008907
C         5.59226513224970    3.81931177973860    2.89451708954493
H         5.05383986818721    3.31768255375290    3.68492878121659
C         6.05142445552789    5.08942690430364    3.09072347405732
H         5.88531057474942    5.60795038882422    4.02224532492755
C         7.75438858767995    5.63334597342961   -0.21662069191256
H         7.83710567813318    4.96180167356897   -1.06709850496554
C         9.17891639064054    7.09098735864425   -1.39722028373546
C         9.56975710223881    8.41911762441362   -1.61228704845549
C        10.36528034801287    8.79153307516259   -2.68052163910017
H        10.64620208153140    9.82693181691682   -2.79677166616342
C        10.80362420175574    7.83304889515650   -3.57626579287934
H        11.42200618962585    8.11442059345094   -4.41268910502980
C        10.46419212032600    6.50635002576230   -3.36384852075321
H        10.82957050431447    5.74450852272982   -4.03442214323834
C         9.67235712193296    6.13561655016554   -2.29379481032166
H         9.46821139856151    5.08746894832060   -2.14756954054232
C         5.27474434175304    1.75362130259927    1.50106993205036
H         5.51637946330988    1.36268836045726    0.51685117224941
H         4.19300153349076    1.74225516829281    1.62531723194972
H         5.70051899260406    1.09202266630932    2.25380880091412
C         7.60953237429103   10.33730526250153   -1.29904796542024
H         7.93457334244903   10.76635232613092   -2.24248609368229
H         7.18530971330631   11.11343306403842   -0.66931345916152
H         6.88447031439118    9.54639773878231   -1.47308939445106
C         6.54430652876527    9.91057880667542    2.85148519415321
H         5.73288269983832    9.49373323379728    2.26623624260323
C         6.29351474613839   10.71206171041085    3.94544627981760
H         5.27581527374402   10.93556959095633    4.22407002726238
C         7.35633014078266   11.21997654312117    4.69274647498927
C         8.64131124814345   10.88369962076307    4.27039626794509
H         9.50493550657599   11.24177476432928    4.80794922556211
C         8.81118647169007   10.07892699269919    3.16201129176700
H         9.80256114301089    9.80350226285167    2.81996375012882
C         7.11960860851652   12.08877555124389    5.87621170044781
H         8.01652437633382   12.18533189978315    6.48100087236968
H         6.31325723523600   11.69155085913823    6.48871323826274
H         6.81926320285259   13.08362360272413    5.54671781385072

