82
CSD_code = SOBDUI | q = 0 | S = 0 | Stoichiometry = C26H48N4Si3Ti | MND = 5
Ti        7.71911364919040    1.99441354164175    4.32225008874447
N         8.80270710179764    1.14879025977892    3.32051748995303
N         7.19491074368673    4.02525686253337    3.80170476603703
N         5.96182192079870    2.21643555556663    3.32176326625568
N         9.06022761194087    2.79010635921215    5.73825548091229
Si        8.11073310986164   -0.35760611844111    6.83962913616699
Si        7.77228493029757    5.64071863684169    3.73859220526235
Si        4.70844584324731    1.16805935551953    2.76663956039249
C         6.95176566148314    0.70067256479187    5.81660020933232
C         7.28975463294519   -1.94063311150476    7.56933973187682
C         9.59511835018716   -0.92624597687060    5.76456125582345
C         8.79541162692698    0.59211026222670    8.37441816443676
C         9.36932460054234    1.07129925693092    2.02903009588870
C         8.52738837229630    1.92571640444980    1.04608226350312
C         9.41166979406307   -0.38697164817465    1.51939031661959
C        10.81685036306170    1.62353545303430    2.04329241363719
C         6.11176066065516    3.51385425549893    3.25170872109894
C         5.09972122208315    4.37016773291572    2.58056033959892
C         5.13775907527695    4.56319969200797    1.20525065068638
C         4.18990273608389    5.36158777604834    0.59082059280830
C         3.19690083008901    5.96795620278709    1.34276668694260
C         3.15392201054190    5.77493556784916    2.71324843803592
C         4.10292151471063    4.97984353186399    3.33134650917643
C         7.50914509279385    6.59897096359923    2.10216160883121
C         7.01073037493302    6.72010588395107    5.13099925192646
C         9.66562333616301    5.49243423332924    4.00304300818900
C         3.28475578429533    1.15704136167937    4.05445096918025
C         3.91788182467286    1.56736556008551    1.06645199495251
C         5.60170128977665   -0.52237236517492    2.65602323353595
C        10.37202232430277    2.55836073094724    5.74678526977485
C        11.22750095584077    3.12831480866491    6.67470775229123
C        10.70169324934616    3.97359060051899    7.64341673984104
C         9.33254963058278    4.20363014900814    7.64187797163470
C         8.55582342137399    3.59180754636133    6.67334920194483
H         6.38945278218291    1.40543591374367    6.45352749215385
H         6.21213180588287    0.05526341295508    5.32953496214607
H         8.00816837889369   -2.56093526196500    8.09662565991196
H         6.49727634471591   -1.69283385567542    8.26937630726186
H         6.85164726895492   -2.54599478557472    6.78164445981432
H        10.55268013625176   -0.71649004814149    6.23287132042296
H         9.54403214353127   -0.39109169096962    4.81281035916469
H         9.56073950677286   -1.99123775762352    5.55863493677677
H         9.14283866715577   -0.09817181273348    9.13634916516468
H         9.63206422751784    1.23270595674775    8.11257608163169
H         8.03205996065826    1.21641939280593    8.83018962567757
H         8.95586723488803    1.90962662097521    0.04459062716024
H         8.49398257451199    2.95533914019823    1.41308831892464
H         7.51112356492349    1.53037709154982    1.01433355219347
H         9.87657512553906   -0.43915740744476    0.53698333929132
H         9.98044793785408   -0.99949937072090    2.21540283733697
H         8.40145945766271   -0.78331485857632    1.45950591426945
H        11.24398595417049    1.61452817673651    1.04264252969789
H        11.43808022722228    1.01007837505661    2.69361698485702
H        10.81222085496419    2.64683450624973    2.41926546609730
H         5.91447790394800    4.08629906533287    0.62570363825867
H         4.22410307552457    5.51149496957371   -0.47841697581721
H         2.45652597263071    6.58975841934866    0.86119346635843
H         2.37904696785975    6.24515393803287    3.30154359143628
H         4.07240232237575    4.82569038843661    4.40120577143949
H         8.09316445925385    7.51441237127896    2.09963823504848
H         7.81487719347143    6.01352664777039    1.24006764653614
H         6.46874647062212    6.87393237226206    1.96031670254617
H         7.49741718978182    7.68935517468834    5.16943609619529
H         7.11502137294594    6.26480636538327    6.11198670331929
H         5.95255594926019    6.89335789993733    4.95637741196968
H        10.19774498489289    6.25645514565993    3.44613518303660
H        10.02571842463797    4.52029406258926    3.66842117690904
H         9.94052866974562    5.60733290789981    5.04764020561979
H         2.55907586683874    0.38271437077579    3.82812928333800
H         3.65947638847008    0.97491672932853    5.05808702644641
H         2.75677422858674    2.10712890248222    4.06358093835996
H         3.27452959501504    0.75023484631845    0.75557463278733
H         4.66636729225675    1.70636868242238    0.29251683456515
H         3.31071825425679    2.46624177964128    1.10382847481123
H         5.12451931914056   -1.27381101794622    3.27775192424840
H         6.63534690215888   -0.40040815577549    2.99802463163595
H         5.61130259273017   -0.90937698590583    1.64103439566032
H        10.72415751302680    1.88378923672129    4.97425567013575
H        12.28488916914035    2.91651761881486    6.64368840004880
H        11.33895133499441    4.43626748828013    8.38182565957046
H         8.88041343696637    4.84702285887195    8.38109825772925
H         7.48256934942290    3.75699029062443    6.64184969257009

