62
CSD_code = SOBNOO | q = 0 | S = 0 | Stoichiometry = C25H30Cl2N2O2Pt | MND = 4
Pt        6.18709921987323    3.34926370871063    2.50159624164449
Cl        0.65215819164989   -0.80091567428481    2.81482915484706
Cl        9.79779982088787    9.21481536075824    3.38883713546377
O         4.93220660713712    1.76206730530881    2.77445616370173
O         7.31358051378066    5.03423719629968    2.27995494112503
N         5.37321278294555    3.68458907860400    0.70300893060879
N         6.94493807561055    3.05496148832330    4.33076573309346
C         3.39106608327695    2.28976108525795    1.00263932523571
C         3.80677354521363    1.59376498612336    2.17624681023398
C         2.92232525829397    0.61976965643701    2.70353027036890
C         1.70352652099737    0.38237975596589    2.12586669613542
C         1.28503785025230    1.07599310855115    0.98695517783848
C         2.13397351367791    2.00373176127237    0.44339263424318
C         8.09850475738337    5.20010481309332    4.54925560856401
C         7.92318467302617    5.67138909767030    3.21439720551952
C         8.48331118485750    6.93275867454774    2.88909192931068
C         9.14572255679103    7.67759830600035    3.82754990170846
C         9.30915995187952    7.22457913050194    5.14003425719368
C         8.79206864520147    6.00118299396889    5.47371901132830
C         4.23397870849701    3.21827655231724    0.32426467749968
C         7.63741367928755    3.92413029332957    4.98473440727968
C         6.11991111481453    4.48376996023369   -0.24399526345667
C         7.46021863881151    3.80863155960925   -0.55913091217632
C         7.27580504866725    2.35634576776554   -0.99278229231312
C         8.59320390639321    1.66063102641061   -1.32927404804493
C         9.61334695872689    1.63824292791720   -0.18888991202677
C         9.07912286371570    1.04171958642313    1.11429156323671
C        10.22867302215673    0.71132820010409    2.06476203842131
C         9.81309106019254    0.00584289930049    3.35732304513534
C         9.01278389728039    0.89489921853607    4.31671550378514
C         7.50313267933912    0.68451555260077    4.21160648392678
C         6.72124005744965    1.77065530719420    4.95945868366324
H         3.23731479764648    0.07746078132300    3.58114060536327
H         0.32076847012338    0.87305905040081    0.55153747880377
H         1.83219022990306    2.54135812491916   -0.44423465195779
H         8.36245488358449    7.29016124676150    1.87857608079317
H         9.83366220334626    7.82888141180881    5.86133778083301
H         8.91544385936008    5.63201079587300    6.48197743209778
H         3.85584275674810    3.53199521856864   -0.65267629406714
H         7.94031947653521    3.66620331926568    6.00327345570822
H         6.31481168606625    5.46390752837455    0.19890464477156
H         5.53988093792852    4.61504717336390   -1.16674290222687
H         7.96077720349456    4.37603121843396   -1.34573431781758
H         8.07438444965650    3.84883890396576    0.34068072745922
H         6.62792906386737    2.32032362993415   -1.87338180290404
H         6.77597853363619    1.80519495698062   -0.19236103377693
H         8.37032687927388    0.63133843064888   -1.62131249841019
H         9.05001166162463    2.15417205727757   -2.19093294039381
H        10.46795559742399    1.04359012048279   -0.52343924767343
H         9.98085775845133    2.64804798181669    0.00009006702201
H         8.52302995964877    0.12762729867168    0.89361808134575
H         8.39395791591741    1.75491705894750    1.59007485564149
H        10.93341676633037    0.06178020952579    1.53769307530447
H        10.76204508155524    1.63132968792072    2.31637099908385
H        10.72536164598701   -0.32515159092205    3.85852508759774
H         9.23411655116945   -0.88732630848296    3.11475787096808
H         9.25110630987384    1.93972441889986    4.10585458816490
H         9.31968085069566    0.69188883238268    5.34593009734609
H         7.18595711568675    0.70335308247706    3.16807388088101
H         7.23577444990875   -0.28766455620051    4.62876036268123
H         5.65562493465257    1.53758586811929    4.90620669589484
H         7.03394658183690    1.79929336360819    6.01112071837404

