158
CSD_code = SOBNIJ | q = 1 | S = 0 | Stoichiometry = C63H79F3N5O6SZn(1+) | MND = 5
Zn       12.91823904518214   12.58127054692110    6.59556446446274
F         9.76978664824901    9.36757824517031    7.98721976139380
F        10.51573379245671    9.79416823637647    9.96928914857111
F        11.87521201134593    9.20225234174843    8.40309896503097
O        12.08042408048648   14.83112819821993    0.17403035319738
N        14.13715746184998   10.95161900652869    6.81169470580837
O        11.20321405470099   10.93386769240775   -0.30374834907644
N        14.54992413469706   13.54904728521532    7.28059164419250
N        13.57159430407637   12.19667911451627    2.90908475944268
N        13.77638309879277   12.39700749557028    4.19140370540757
N        12.74856331372067   13.02252261916283    4.67995297596464
C        12.16837258680088   16.38176247578586    2.06232871051679
H        11.14495025118952   16.70170990526059    1.94977102660369
C        15.49138316872451   10.84972840288185   -1.49249329651645
C         9.39098727707137   15.79426138808993    4.92020364341710
C        15.14681910592000   12.68530499304181    8.11487769697263
C        12.72656189900918   15.44363410702111    1.20521866640191
C        16.42513278260030   10.13335640165841    0.72783224398717
H        17.16649892168800    9.59557937715043    0.16357118525785
C        10.58209245381533   15.13344634080468    4.64797119033575
H        11.53076596591030   15.55538250672268    4.93330327259057
C        15.41804535663126    9.40372248268228   -2.00346919173152
H        16.25661062418373    8.80759949071143   -1.65562943358869
H        14.49719103250149    8.92937754705753   -1.67083523360091
H        15.42992415048112    9.39707088794049   -3.09038669094943
C         8.21754639678814   15.24995614853518    4.41155434011620
H         7.28783221232291   15.75842050793680    4.60472966692165
C        14.86827780559121    8.69439069418814    6.85913071772195
H        14.77042601464057    7.68350703835066    6.50242191427337
C        15.45638060875356   10.85119933136509    0.02748040909047
C        14.52988459313008   11.51132052050048    2.13895395471612
C        10.69709158368882   15.06241984387716   -0.01423333298644
H        10.14070666671413   14.67694486785635    0.85360136827622
H        10.49351587440125   16.13697117071609   -0.09675136635368
C        15.50411948678824   10.79586449012886    2.81801820870826
H        15.49035428678171   10.81088659382730    3.89526926831773
C         9.32001724654841   17.07012056234851    5.74555683498455
C        15.83505928334960   13.12251011062378    9.23946722327631
H        16.26511880375599   12.42255940131624    9.93538917771589
C        18.52915943132860    8.60693141460291    1.97762858513442
H        18.05983698494211    7.89787298787283    1.30011111685484
H        19.07824712679004    9.34698982099470    1.40056201027877
H        19.24557663506886    8.05947719664361    2.58546787796912
C        16.46832572542409   10.08608620253982    2.11422278419839
C        14.49624977265517   11.54473409903843    0.75094993298794
H        13.72722280584824   12.10271170368034    0.24844411740683
C        17.49509964160077    9.27408577410871    2.88731299671574
C        15.39725971060991   15.36348456579849    8.55434502266286
H        15.49376588898232   16.42969549382055    8.68448695316290
C         8.18851117728907   14.07894521663766    3.66254326027798
C        14.25243955779724   16.54671108234528    3.28748397864519
C        10.58130881362929   13.94283800380509    3.92398036856748
C        15.06168639777665   11.26748087036290    7.72909515394858
C        10.67523976536120   17.48991724727016    6.32246086813470
H        11.08227257405593   16.73092408410582    6.98552877451005
H        11.39232848798032   17.69627999187010    5.53317493342193
H        10.54649429743738   18.40369964837440    6.89837406264781
C        11.84112696863853   13.24070646251439    3.69841264949142
C        12.59569483314688    7.94285968067046    5.18550868976281
H        12.46366147613029    7.48507893367330    6.16693501931580
H        13.39054212352586    7.40840672213028    4.66214315095279
C        15.92521400346008   14.48539840297575    9.48026036796388
H        16.42157199553934   14.85028601339138   10.36631431111134
C        15.82896745700475    9.00720551627634    7.79994254846414
H        16.49073694991287    8.24587952237406    8.18320696362609
C        14.02311022053279    9.69543700187874    6.37722850340580
C        14.71208184073309   14.85892769488909    7.44932956338832
C        12.93903891047120   16.93107316152252    3.07485369456824
H        12.50051315266781   17.69404093120814    3.70102900482802
C        16.80502722131988   11.49868669785514   -1.95195728600745
H        17.66954431873081   10.94520961930689   -1.59626824670797
H        16.84404906550273   11.52718744282583   -3.03786874933788
H        16.87477035992699   12.51838113270619   -1.57879112198154
C        12.37561013540336   12.69856129929217    2.54405817953126
H        12.00408723002490   12.65808360363847    1.54527473083559
C         9.39065207435174   13.42118613831378    3.43288955536663
H         9.42691365130085   12.48606113634401    2.90051022829873
C        10.25339148016942   14.37820060331454   -1.31317539994708
H         9.16298957159876   14.37654038555267   -1.34554278120787
H        10.61651039205394   14.97205058616562   -2.15251740630024
C        16.75138696198648    8.17852360582979    3.66520968272172
H        16.20544353147046    7.53553471417694    2.97805973098064
H        17.46130206521085    7.56659928594464    4.21639864685433
H        16.04763712951616    8.60963654437487    4.37262956494415
C        10.04523140453455   10.10615495595424    1.67644597117123
H         9.13971795505801   10.64613249875895    1.45439065069726
C        14.25130754996362   15.77338628958636    6.36243542049440
H        13.51659019775931   15.26079604285209    5.74637145103526
H        13.80990984211736   16.67379772546526    6.79021242074880
C         6.84844054397318   13.57256633689424    3.15261431016141
C        18.23783821485176   10.19200226861271    3.86803350854251
H        18.99344744566011    9.62440447635688    4.40563616820774
H        18.73315443279674   10.99586631182860    3.32839145999940
H        17.56259436040745   10.63270422678901    4.59711945365182
C        14.06015326098569   15.07020241183202    1.39265059049068
H        14.50279819830713   14.36490205154417    0.70701533035412
C        15.08435300181258   17.15358156957293    4.38310035769396
H        16.01104360961107   17.53152636322382    3.94455955168429
H        14.55501565242805   18.00101377664592    4.82185127948313
C        15.93478580713739   10.31560256691628    8.24188892943692
H        16.69156558975980   10.58549252719826    8.95850596128690
C        11.27961387915929    7.79486318435741    4.41386070670080
H        11.12534465835337    6.73552730330927    4.18916015700057
H        10.45654387133504    8.11713516295181    5.05451303469932
C         8.80596170378422   18.20684380529154    4.85039850593091
H         9.48546892288872   18.36738779057233    4.01579735562174
H         7.82182182183348   17.98273708407439    4.44898125518598
H         8.73704719126225   19.13009836159617    5.42023887549186
C        11.23103142165919    8.58443927376810    3.13481339537743
C        14.80170149218638   15.60402755963724    2.42281903258468
H        15.83042919337298   15.29870983865708    2.54582359155403
C        15.45713806783273   16.16009354355282    5.49043751165496
H        16.22494069531705   16.61209382688681    6.12131962610039
H        15.87429741586797   15.25471879746705    5.04652465401429
C         6.97714018013925   12.29526354833058    2.32070116306182
H         7.58741098461352   12.46852160372526    1.43614721492658
H         7.40197862134441   11.48705082142878    2.91098984725377
H         5.99104223138518   11.98063725577411    1.98679719471985
C        10.11549165430415    9.35025948438053    2.83394468716303
H         9.27615435057916    9.35615024701089    3.51411895169369
C        11.12230646208217   10.13544007998739    0.80010347881589
C        12.27163614815127    8.55874405764138    2.21063267114569
H        13.13591743592881    7.93575013556567    2.38522408207257
C        12.22539061772008    9.32334679527506    1.06433588947577
H        13.03873928013232    9.30635801911054    0.35744416944126
C        12.97517202801277    9.41552147888917    5.34837161915499
H        13.32921301878322    9.79402781404355    4.38539272565507
H        12.08603475545462    9.99424810670481    5.60488294209586
C         8.35552882701388   16.85229857309796    6.92109635369405
H         7.33976310345520   16.67508863532064    6.58111143756051
H         8.66683138678890   15.99932359022095    7.52114871781544
H         8.34344403265652   17.73371747797630    7.55746809176971
C         5.94577235712481   13.27045654948696    4.35724603633106
H         6.41715013442043   12.53617809596104    5.00700879738720
H         5.74682580861141   14.16375109985748    4.94210554183428
H         4.99366779752674   12.87059611734715    4.01709336224436
C        14.32402017465999   11.62563737101707   -2.10665696624826
H        14.38893375840869   11.57346256894408   -3.19081039424028
H        13.37103069532290   11.19544423687303   -1.80752771403995
H        14.35756113718723   12.67624647535401   -1.82546049580678
C         6.20386236671528   14.65111828845761    2.26949956795918
H         6.00360202258056   15.56130532036129    2.82685678694792
H         6.85706451652033   14.89883521032834    1.43456298242131
H         5.25990268619191   14.28770404686831    1.87110879211813
C        10.22888411933794   11.94725096408855   -0.48928082125205
H         9.29382340972434   11.51244626984808   -0.86460366616939
H        10.01931088993473   12.44105015834813    0.46835915389417
C        10.80177535552452   12.96101892989569   -1.48100491998263
H        10.61338217547222   12.61980928051883   -2.49840457022798
H        11.88157731156932   12.99888096122815   -1.34106365923038
C        10.77148239483840    9.91139763400416    8.67429983206372
S        11.06865517938233   11.68620734195381    8.15207083410536
O        11.12551812669278   11.58914299042215    6.69084480869937
O         9.99485386675933   12.47709413423913    8.66398923110695
O        12.38692666876002   12.00053890837927    8.66867305807166
O        11.60719274975338   14.29454176716849    7.26723148020349
H        10.95281489445696   14.48561743940502    6.57153476514975
H        11.09102858182052   14.03185556989738    8.04282552082409

