65
CSD_code = SOBPAC | q = 0 | S = 0 | Stoichiometry = C26H32Cl2N2O2Pt | MND = 4
Pt        3.56564997144040   12.27471981623055    5.95608652156360
Cl        1.46566147909377   13.33373771071535   -0.98062965362657
Cl        5.48944214072399   12.89293831525359   13.00151109599837
O         1.95014780160346   12.21263405974697    4.71996711046414
O         5.16789844923762   12.46339164057025    7.19659077729640
N         4.78638747392079   12.53651071438620    4.38000280444450
N         2.33732430369581   12.09382683381970    7.53932257949133
C         3.06083097997295   12.73474514198483    2.65332291197211
C         1.91871478284823   12.46291203911205    3.45940064615431
C         0.65300317698958   12.46174221178729    2.81627135582857
C         0.51494104750386   12.72503435214714    1.48182039489909
C         1.64827217882217   12.99863888885599    0.70997660078250
C         2.89292937306953   12.99986271648488    1.28117289641452
C         4.00602528362856   12.44393307389885    9.29915847420500
C         5.16595201891410   12.54244723811297    8.47918989075213
C         6.41105403807869   12.73849382531562    9.13289287931067
C         6.50963555450854   12.84488138182582   10.49228168083921
C         5.35704533300585   12.75408768494429   11.27883213880310
C         4.13362994161460   12.55577008494601   10.69660122078083
C         4.38940442037911   12.73105524744676    3.16802071362553
C         2.70217559243194   12.22285076145689    8.77027984049388
C         6.21832348102925   12.49795958490478    4.59933297051280
C         6.66520563336857   11.08030747848723    4.97136545973024
C         6.38422515131426   10.07116520798475    3.86251923453255
C         6.64452419793045    8.62999855182166    4.30043038439186
C         5.80658350704406    8.16689621604534    5.49522651930191
C         4.30286402950489    8.35641350490541    5.30229206281456
C         3.49861880189463    7.61197216490218    6.36793727814547
C         1.99367446531209    7.61174330056902    6.06215034479544
C         1.11788116054745    7.90012441271337    7.28283739186388
C         1.24719652527709    9.33061710058061    7.80900791160555
C         0.75066095534228   10.36935206127690    6.80742067844107
C         0.93586079036933   11.80576084594728    7.30699799958203
H        -0.21069926386351   12.24835867194876    3.42730995956099
H        -0.45963889956406   12.72429746334014    1.01892317970533
H         3.76282431363270   13.20743788140645    0.67605206807159
H         7.29009428248296   12.80665774634859    8.51038984772840
H         7.46766756094730   12.99886243663615   10.96400495162276
H         3.24952066673666   12.48327316546677   11.31230433576703
H         5.15577362335568   12.90793025225232    2.40898788736498
H         1.92531860001119   12.14889138314950    9.53564551827320
H         6.46041536684159   13.16946877515912    5.42611045189053
H         6.74894181600682   12.83115811261909    3.69830642077795
H         6.12865648733938   10.79490982238274    5.87575805554263
H         7.73261009785971   11.09898643672792    5.19727449954282
H         7.01604660547558   10.29383185843430    2.99808190194624
H         5.34505325891065   10.16173843325118    3.54211480170661
H         7.70170233998992    8.51667189609785    4.55295024676427
H         6.43712501207078    7.97302160559792    3.45206640012535
H         6.00840575401199    7.10311798749734    5.64765995962878
H         6.12506238892880    8.68481773391121    6.40115279859097
H         4.04609949860017    9.42467676276910    5.35341449839846
H         4.01979095572642    7.98533752181128    4.31406058791282
H         3.68830134840449    8.07776915004285    7.33575947310026
H         3.85724605216738    6.58233986903422    6.43499451622175
H         1.70687704302672    6.64035979280296    5.65448804559637
H         1.78177221810187    8.35187962799277    5.29049777704560
H         0.07378981588484    7.71643909944267    7.01757472597189
H         1.38227116567222    7.20365535801659    8.08200916651756
H         0.67238353158667    9.41621666262081    8.73540754347590
H         2.29229229295529    9.53678885023223    8.04777306798582
H        -0.30902748543265   10.20966512578775    6.60032016909627
H         1.30192879708894   10.27640724949147    5.87219065587683
H         0.56391348186808   12.49105509301518    6.54201184198966
H         0.36163723276050   11.95375400553201    8.23061352998984

