65
CSD_code = SOBPEG | q = 0 | S = 0 | Stoichiometry = C26H32Cl2N2O2Pt | MND = 4
Pt        6.67657023733441    1.25609257980538    9.56608779015540
Cl       10.73858325278376   -2.89537582157354   10.33853748491958
Cl        3.39102557794329    6.05185120898714   10.20323149664407
O         6.27766725815432   -0.38297441108524   10.70114063986107
O         7.12189219323563    2.94935437933924    8.52975067250982
N         8.44260719586194    0.46201263191347    9.04866345843230
N         4.94799707717920    2.08174004241696   10.15329549045421
C         8.38009203350796   -1.52214896349943   10.48556928156225
C         7.05898374629552   -1.35532221095256   11.00396201575523
C         6.56842605546005   -2.33070764127523   11.90909420119032
C         7.33053567576795   -3.39623107077584   12.29778707443919
C         8.62673853024022   -3.56205185131122   11.80579543192429
C         9.12425045698387   -2.64024107998223   10.92014393358677
C         8.94834586754546   -0.61601566619716    9.54462472627119
C         5.34310427672633    4.35276840822199    9.32839084702830
C         6.54948305376659    4.09646851152666    8.60623202973497
C         7.15318191567002    5.17554754566040    7.91214233006863
C         6.62355396198923    6.43507985457629    7.94318428119346
C         5.45555845644565    6.69925982836421    8.66082934622129
C         4.83972779451216    5.67117599776295    9.32864907014723
C         4.62613494962419    3.32083457878281   10.00092894029509
C         9.23761666788050    1.14722932359571    8.04894267965011
C         8.59321634450737    1.02232909026749    6.66498443626546
C         8.47226102183332   -0.42931253051110    6.20951758638439
C         7.89553024641907   -0.55579371545514    4.79921272320820
C         6.45426533211604   -0.05937349664908    4.67304405314802
C         5.43621106997145   -0.92410178844338    5.43339853141272
C         4.52415674045185   -0.09927473618766    6.34146182101462
C         3.40655842667878   -0.95539993725121    6.93655788494705
C         2.26987767480163   -0.14039700777847    7.55833188678650
C         2.71625739393871    0.86535080220293    8.61853581223606
C         3.42485353402908    0.20231966962573    9.79550378316906
C         3.96940749646136    1.22749691456233   10.79505473459137
H         5.56627450753787   -2.19267655511590   12.28493056145610
H         6.93496998950803   -4.12069623292509   12.99350941897149
H         9.22863426978854   -4.40087832602577   12.11516711815077
H         9.94556018701824   -0.90012838625134    9.20597481732015
H         8.05710864543173    4.96212919115124    7.36259425846029
H         7.10896545469398    7.24033612128980    7.41281946002721
H         5.04135699410691    7.69382116455663    8.69006173800813
H         3.67202754960808    3.64454850544412   10.41919905801603
H        10.25314812289581    0.73183472394412    8.02255441240677
H         9.29161132263493    2.20531422712467    8.31572286464748
H         7.60553905092566    1.48079668118755    6.71765388786779
H         9.19808978363313    1.58580341486546    5.95201066364089
H         7.84029820849876   -0.97322956224799    6.91420626077485
H         9.46153281809342   -0.89533682087698    6.22338887904919
H         8.52458619720660    0.01383092476143    4.11043326009292
H         7.93737065901988   -1.60353642568565    4.49201946038154
H         6.19362454614326   -0.03826786226294    3.61297090585896
H         6.39951650276129    0.96849376559243    5.03158558434597
H         4.81815822056329   -1.47149628251820    4.71795342460193
H         5.95357721358887   -1.66956626749309    6.03899802985619
H         4.08079119120114    0.71297914216705    5.75999463887444
H         5.12749422124798    0.34620818583802    7.14473170267879
H         3.82573189738173   -1.63954005531876    7.67586777939440
H         2.97511505728550   -1.56925957187223    6.14103135524081
H         1.75576079874483    0.40582676182696    6.76352631795139
H         1.54857890670801   -0.83190976549029    8.00111234177412
H         3.38344250199875    1.59583703191709    8.15789866448623
H         1.83670234281997    1.40465998545848    8.98118785602245
H         4.26858589561172   -0.38743339602315    9.43558354536444
H         2.73676203514856   -0.46446022003385   10.31796123098795
H         3.14530075026414    1.82919905357846   11.19877260604990
H         4.45861264181271    0.69470741075939   11.61389142204362

