29
CSD_code = SOBTOT | q = -1 | S = 0 | Stoichiometry = C16H4AuN4S4(1-) | MND = 4
Au        8.42465082483573    8.72201116630786   21.46205641808256
S         6.15532860579637    8.75405834243463   20.96008155491254
S         8.90439597212677    9.23795857068565   19.24718048667217
C         6.14284555649452    9.14301883305787   19.25821114653677
C         7.31865791273808    9.35094712434858   18.52579978654720
C         4.90952848030945    9.24613576771519   18.62556422446548
H         4.01182959607918    9.08275292428478   19.20234733472962
C         7.24237343374737    9.65977085120112   17.17275299356829
H         8.15682432580193    9.81759255165267   16.62124456680674
C         4.82790958155303    9.55477543387625   17.27394708347828
C         6.01253297032055    9.76517798850649   16.53623301445174
C         3.56940708837266    9.65635211572272   16.64731483432305
C         5.95187611411186   10.08177961497100   15.16411041092462
N         2.53895155455566    9.73596200823478   16.14827151506393
N         5.91503133242340   10.34184801455580   14.04678384167436
S        10.69392896140721    8.69063274787976   21.96367295717567
S         7.94531414262000    8.20658047868977   23.67727202104359
C        10.70686402189997    8.30170560764114   23.66553571650847
C         9.53125946195520    8.09370078259242   24.39825768235663
C        11.94036296802623    8.19873318651203   24.29782495327020
H        12.83789132900717    8.36219676416280   23.72080171375126
C         9.60796765900788    7.78492404867256   25.75129619640615
H         8.69368055778051    7.62704877981028   26.30305308495767
C        12.02240187188880    7.89016343882837   25.64942489003066
C        10.83800424281173    7.67966122968732   26.38747395646714
C        13.28111472800299    7.78881460364104   26.27567224899179
C        10.89910556185991    7.36315372722509   27.75959076162264
N        14.31167141040670    7.70927079834106   26.77449928224605
N        10.93628973405909    7.10317249876094   28.87692532293498

