107
CSD_code = SOCCAO | q = 0 | S = 0 | Stoichiometry = C50H50Cl2O2P2Ru | MND = 6
Ru        4.02078037128717    1.69786724160230    3.14643142693970
Cl        6.32745306916412    1.84286996151587    2.81980134140576
Cl        3.69317585296263    2.33010460580718    0.91036559904136
P         4.00504358523076   -0.52519659278257    2.44777719535579
P         4.04917865315065    3.94567241971817    3.77454301254618
O         4.29116013258255    1.09399580104582    5.00334390061778
O         2.06205080882473    1.48977835234068    3.78605563771094
C         3.24114336445415    1.06460796582016    5.72765617486090
C         1.98265914328058    1.28817397172582    5.04652070141074
C         0.77137381569148    1.15808356904433    5.78954081328252
C         0.87918888047244    0.83211043021350    7.11649488530641
C         2.10127750581846    0.59055317204103    7.79032882542646
C         3.27080904900182    0.70115121939799    7.08945362052461
C        -0.56147079494414    1.38580584292203    5.09433964446812
C        -0.56651616442538    2.78478557306999    4.46560062966069
C        -1.75556690926046    1.28429193569874    6.04725156305091
C        -0.72232410426450    0.32183864215335    3.99959134796628
C         2.05474732581377    0.20356169251074    9.25860224400962
C         1.23747244889824   -1.08792664117374    9.40807256563552
C         1.39602320839394    1.33199703169082   10.06413503509709
C         3.45043046188807   -0.04450038086528    9.83530356610171
C         5.44340504757865   -1.19848669546759    1.57356794009026
C         5.99655076720603   -2.44045643572113    1.86708137978865
C         7.06845962549257   -2.90574639947305    1.12668891550190
C         7.58933961896123   -2.14093888860346    0.09598678218824
C         7.03430549234240   -0.90703538722628   -0.20181477773456
C         5.96199245889227   -0.43488768694775    0.53128755464840
C         3.82387115659676   -1.52730936362043    3.95056105544884
C         4.92553983754554   -1.64432632370242    4.79788641635104
C         4.78662964314117   -2.25532639455000    6.02892225917429
C         3.54809005992719   -2.72986228087667    6.43358005225675
C         2.44651853261684   -2.58900878577548    5.60720419776145
C         2.57957805023546   -1.98630489635260    4.36819191486270
C         2.62963636570076   -1.09341144070418    1.39988879548912
C         1.58093902994834   -0.24069679629528    1.07900617865931
C         0.53051198584175   -0.69880300774564    0.30221056350856
C         0.52543340966737   -2.00392233744300   -0.15846937154249
C         1.57284111163267   -2.85608856004255    0.15746832400504
C         2.62312440929068   -2.40578498093722    0.93388941373628
C         5.44355262882601    5.00384644347793    3.28770621499424
C         6.05644084491461    5.89712546026074    4.15910777533114
C         7.07904375289195    6.70867629012443    3.70152583217822
C         7.49059646754643    6.63605923222860    2.38122058621458
C         6.87583847106915    5.75080001857202    1.51078786339020
C         5.85190394356436    4.93760793070448    1.95838463575301
C         4.04886395324803    3.98348200265502    5.58756481938316
C         5.22236181395449    3.59818059744061    6.23555336218408
C         5.25122487638412    3.50680824996444    7.61321420650945
C         4.10818762987372    3.77754293476061    8.35103775314019
C         2.93233208459036    4.12398487166095    7.70816275212541
C         2.89649962698139    4.22092899731616    6.32784956458872
C         2.64876274743725    5.01498671955597    3.31572262979540
C         2.56687649494018    6.29593051028902    3.85768958935511
C         1.51776684291078    7.12504952815777    3.51247150015679
C         0.54942161213146    6.68728934860363    2.62095961586743
C         0.63609029221304    5.42076470468410    2.07082701981742
C         1.68418719687553    4.58323813277580    2.41487025800522
H        -0.02497601918408    0.74455526981066    7.69420447007963
H         4.24125046265599    0.53852551373826    7.52585910651432
H         0.24888990641415    2.89036140619738    3.75733617837320
H        -0.45832023878054    3.54734456840910    5.23546733777856
H        -1.50263121032965    2.95809798068891    3.93920087985236
H        -1.68732512900919    2.02242140977608    6.84340323641596
H        -1.83001634138305    0.29062054868360    6.48330791739611
H        -2.67126136594291    1.47437151452671    5.49134351302452
H         0.09109218790984    0.38394375459623    3.28356889610602
H        -1.66102845885119    0.46728974266235    3.46921186241513
H        -0.72305754669800   -0.67399239026329    4.43968701430365
H         1.67142723861239   -1.87590860660195    8.79710261321777
H         0.20574013821754   -0.94619730546282    9.09904025459925
H         1.23896949393505   -1.41200818416309   10.44659129515355
H         0.37945332294697    1.52059185874263    9.73060610680085
H         1.96791279457706    2.25003579425796    9.95459439634719
H         1.36402118642378    1.06670938424075   11.11879869072764
H         3.94806908184975   -0.85573593095548    9.30987746903975
H         3.36758045207493   -0.31988711939350   10.88478577969302
H         4.06351573608120    0.85059474840613    9.76710675491003
H         5.59737249325818   -3.03985532265352    2.67443037798276
H         7.49973203179155   -3.86928887509742    1.35806383224770
H         8.43068264999068   -2.50800988734062   -0.47354739694961
H         7.44103167329849   -0.30899125404753   -1.00333584844555
H         5.52969108264941    0.53195053768469    0.30990771550975
H         5.87877374455139   -1.23647235168440    4.48611427738043
H         5.64296290024666   -2.35292975516133    6.68048534793417
H         3.44269701439776   -3.20512724904008    7.39830329780299
H         1.47788736852167   -2.94328034989835    5.92930001928222
H         1.71897112120119   -1.86970553089154    3.72297795760355
H         1.59937671916942    0.78266931228359    1.42670766915004
H        -0.28241770545475   -0.03298384851894    0.05312745169290
H        -0.29220343132456   -2.35952967338321   -0.76823979466825
H         1.57068925528283   -3.87376941338904   -0.20507942495805
H         3.44270409388761   -3.06693815680262    1.17896308697100
H         5.74748958344493    5.95300210169908    5.19420697492293
H         7.55798155481206    7.39869144514195    4.38149004671892
H         8.29357255945242    7.26896821083928    2.03258221529946
H         7.19751970582934    5.69028004585747    0.48198621190259
H         5.37364300850639    4.23754725500412    1.28496643978883
H         6.09830984931835    3.36084403583557    5.64396408459599
H         6.16375802171643    3.21848783666962    8.11453004584811
H         4.13542007078028    3.71068915977975    9.42927670698905
H         2.03600969879743    4.31631224859380    8.27987989009420
H         1.97644717201836    4.48537607867605    5.82467425229114
H         3.32660685152513    6.63621714688590    4.54815640064019
H         1.45497974601233    8.11692730962777    3.93616013340095
H        -0.26846044820498    7.33976784155812    2.35241386637523
H        -0.11176795001443    5.08211740197153    1.36938015004192
H         1.76862628614414    3.60106861666772    1.97065693636714

