64
CSD_code = SOCDAP | q = 0 | S = 0 | Stoichiometry = C28H31ClP3Rh | MND = 4
Rh       -0.19559104702867    2.26532089037268    1.92579603145965
Cl        1.24075000105603    0.92020256312328    3.03482936530809
P         1.32783657385308    3.63431845230601    0.95676321416048
P        -1.81563999737392    1.16862404983981    3.03103900093104
P        -1.36693280386655    3.59583785859491    0.55288001447951
C        -1.85438518932103   -0.65801294958940    2.90052552810938
C        -1.74564961681617    1.37910937732207    4.85011814341759
C        -3.57889977391785    1.57851669350164    2.70296690437295
C         0.12663077658155    4.38271855234578   -0.25935566658738
C         2.92241503896243    3.48354273720321    0.09490512636736
C         3.84599812070483    2.61993130864240    0.67733811372265
C         5.09520009985968    2.45698774638055    0.10887940768711
C         5.42389747451602    3.14940562759585   -1.04599567469480
C         4.50198325957746    3.99983875099388   -1.63460643970099
C         3.25050213376007    4.16853653255301   -1.06907067203589
C         1.64086818932687    5.04819381788440    2.06665051023150
C         1.02921803303740    5.00934959111348    3.31623792101969
C         1.17013539460207    6.06917115815109    4.19287349983776
C         1.92755588771064    7.16984857440295    3.82522778395156
C         2.54710034415459    7.20719353367177    2.58572730442041
C         2.40786288737819    6.14940823032553    1.70526275195275
C        -2.45386091044382    4.99413659830267    0.97553183071157
C        -1.91264217426967    6.13399251719907    1.56395125862106
C        -2.73816577557722    7.15360605076349    1.99891846045068
C        -4.11301452991654    7.03874614159048    1.86890977700136
C        -4.66020412119716    5.89358107395021    1.31319566885853
C        -3.83754661911051    4.87156208532109    0.87707131662270
C        -2.19278732660777    2.83989977384498   -0.88516713427115
C        -2.82407831016123    3.56878895730536   -1.88711543013795
C        -3.36013879111229    2.91028178674056   -2.97856552893943
C        -3.26266804425708    1.53067683827643   -3.07913010365494
C        -2.61960488276109    0.80314150330839   -2.09067815345799
C        -2.08374408797218    1.45849423942992   -0.99723188599185
H        -2.07293199450502   -0.94594414117876    1.87306015922341
H        -2.60975957708652   -1.07444584374113    3.56669819010050
H        -0.86961653982590   -1.03628966299934    3.16962892334503
H        -1.87366590024494    2.43319033020687    5.09527686801158
H        -0.76341589589089    1.05411980985814    5.19014021516281
H        -2.52279593713551    0.79144604806847    5.33818630795139
H        -4.24047740862550    0.99272841729834    3.33956257145447
H        -3.80549269592459    1.37462019952434    1.65736909809756
H        -3.73734881768692    2.63978138108501    2.88995984828424
H         0.26164321441615    3.93386953569090   -1.24846189047844
H         0.12433201025494    5.47210986539553   -0.33871442645232
H         3.56265644045413    2.07699800117573    1.56979417907493
H         5.81219464818665    1.78770147297852    0.56101273700373
H         6.39887452370113    3.02219241476351   -1.49355197892468
H         4.75951118757288    4.53336159976479   -2.53874298232869
H         2.53129641332560    4.82963988625456   -1.53390103459184
H         0.44273795567992    4.12621153769206    3.58406749333700
H         0.69373378790581    6.03892465584594    5.16184247148645
H         2.04107168611694    7.99964865620849    4.50759581802558
H         3.14252438783787    8.06446530422702    2.30590426233430
H         2.89754812652499    6.17365583757948    0.74141052463239
H        -0.84132479203788    6.21690244284695    1.68812899659056
H        -2.30826325172447    8.03833692616019    2.44598479923328
H        -4.75740434829275    7.83609422333670    2.20862827500633
H        -5.73256583060424    5.79578552696232    1.22286960655120
H        -4.26471709200421    3.97494194900131    0.44861540483705
H        -2.89526576043796    4.64509998755173   -1.80602575643015
H        -3.85424698084594    3.47360693479267   -3.75715890256041
H        -3.68510907766421    1.02348719907132   -3.93419934609331
H        -2.53592225199763   -0.27048183893238   -2.17644592618776
H        -1.56180044293460    0.91619068063340   -0.21021674984076

