45
CSD_code = SOCGOJ | q = 0 | S = 0 | Stoichiometry = C21H16Br2N2O3Zn | MND = 5
Zn        0.67259298244744    4.19777948372802    5.73299073300162
Br       -0.25584031887322    3.32231999486034   12.97454086076023
Br        0.81432492688322    1.65272553366566   -1.21042369945832
O         0.34512162798909    2.88795088654006    7.01647620662984
O         1.79474864454016    3.35194152445389    4.46197383100787
O         2.76120565926884    4.58366726507297    6.62023247592911
H         3.25080908245085    4.33880261573739    5.82605529987493
H         2.85016790847286    3.83146111418630    7.21464161564610
N         0.05243659895644    5.66861897644699    6.93913095937988
N        -0.58609911286889    4.79307673580291    4.28445672545195
C         0.20404643553583    3.04396538806895    8.28116844885813
C         0.20698390830377    1.89065742467253    9.11500244460662
H         0.32342674726404    0.93513549893664    8.62714836284502
C         0.07432873137318    1.96829648645053   10.47228136726510
H         0.08424386286380    1.07622888075316   11.08048207051923
C        -0.07703072501119    3.21990626176564   11.07831257570607
C        -0.10229047078721    4.36268646201594   10.32818114172122
H        -0.22801696471756    5.32367498812242   10.80631373188755
C         0.03631002250636    4.31168417735287    8.92717326513280
C        -0.04767161101004    5.53890780360670    8.21796635027343
H        -0.27029784764587    6.42502875254229    8.82154823596508
C        -0.10580238916227    6.92268577079830    6.34501378800471
C         0.51819387023799    8.06201386401594    6.84503466850720
H         1.15359593807740    7.97820149873728    7.71416819461986
C         0.36411378209327    9.27798811459143    6.20474348550634
H         0.85994755126116   10.15442703916457    6.59365216489186
C        -0.41839468677383    9.36855447008958    5.06714776039154
H        -0.54032984972071   10.31612033456134    4.56543203242775
C        -1.04052541278732    8.23649716397485    4.56529474041130
H        -1.65103742473068    8.30995321638449    3.67692141084980
C        -0.89483349563337    7.01032867495120    5.19112100947298
C        -1.57793813459882    5.77473667920920    4.66062125626376
H        -2.20119964070331    5.34237633382750    5.45241560826336
H        -2.21993979138098    6.03374666231744    3.80817025468541
C        -0.55873107330213    4.37354002878765    3.07248940274360
H        -1.32386558278265    4.73486980282266    2.37412129232650
C         0.39311998292103    3.47025860934221    2.52242273447679
C         0.20629625552906    3.05602050298236    1.19138053203818
H        -0.65306717569431    3.41687046397979    0.64419156441987
C         1.09316221453927    2.20227935898732    0.59401304207925
C         2.20819708653698    1.72700122101738    1.28907923016022
H         2.89664627048298    1.05296421630417    0.80158370966689
C         2.41530365519056    2.12401073329260    2.58063508293081
H         3.27064522431514    1.76405728738586    3.13191096471688
C         1.52564273814441    3.00258169769375    3.25568306714387

