52
CSD_code = SOCJAV | q = 0 | S = 0 | Stoichiometry = C20H25CrNO5 | MND = 9
Cr        1.55246724395522    2.65251776814788    9.84259026281787
C         1.36297844367417   -0.80199723593000   10.25254409614568
C         2.62312219714150   -1.33503131914998    9.52849116199586
C         3.74303788386700   -0.29888368201333    9.42671124988437
C         3.95054316388666    0.37433810431195   10.78079479159019
C         2.71738012623297    1.15599398838032   11.12118677743896
C         2.78808736301101    2.41750389455801   11.74857217807446
C         1.61673552040846    3.10156481505419   12.06187421578113
C         0.35832939549475    2.53480209251744   11.78104346536645
C         0.28236068827266    1.28320233101675   11.15867317713519
C         1.47658997029923    0.58470552655231   10.81989116415600
O        -0.87951354432426    0.62918093400507   10.89008402349165
C        -2.08015739380311    1.37239000663532   10.87822061580608
N         2.25839046628300   -1.88519674389298    8.22844935943476
C         2.23894382250036   -3.24151756414809    8.11086788634239
O         2.60160080706992   -3.96285763078065    9.02253297492583
C         1.72543868044703   -3.81153035736508    6.80001926367243
C         1.80285291644965   -5.33316156800984    6.80386675423955
C         1.82560462002225   -0.95925538774157    7.20007795060479
C         2.89226095879331   -0.64012000345193    6.14407435664069
C         2.43862530945977    0.52291937034364    5.27053815702089
C         1.21388549762284    4.37127829305170    9.35027299565211
O         1.00254432718242    5.43829292454397    8.95750209693544
C         0.51606468031701    2.33329176300511    8.38587847599535
O        -0.12703683761138    2.19215823952414    7.43177605159801
C         2.81675413336212    2.88067869339510    8.55597967180723
O         3.54611580171000    3.08379313470671    7.67842527896416
H         1.10769359792005   -1.48572650549674   11.06939463933523
H         0.51060023035908   -0.82338652327271    9.56856620106196
H         3.00878744955274   -2.19240093377093   10.09146801346314
H         3.49356189541357    0.47622146815082    8.70053632411220
H         4.65827904632763   -0.79841769111823    9.10693302041380
H         4.81939493134617    1.03441947007079   10.74469311525829
H         4.13293861691609   -0.38608595467535   11.54790916305572
H         3.75235991200920    2.82083767699520   12.03309723269534
H         1.66111296942102    4.04022311574321   12.60101499599706
H        -0.53719481740203    3.04529373508912   12.10818215349495
H        -2.83306818788084    0.70276312692089   10.46672597163787
H        -1.98686533032465    2.25617074965734   10.23856859675163
H        -2.38132083945371    1.67127814016980   11.88714337682888
H         2.31013445158760   -3.41249656978444    5.97147725081708
H         0.68756081460339   -3.49603007482186    6.66586648457281
H         1.41829368561953   -5.73516417518500    5.86975174050908
H         1.22334228676592   -5.73648905686268    7.62973806880747
H         2.83263283766601   -5.65522244507995    6.93110909950380
H         1.54370974436320   -0.02252622635240    7.68898323612123
H         0.93383825993722   -1.34632818284739    6.69968278517562
H         3.83071282848510   -0.38200875458626    6.63378075813090
H         3.08018622722432   -1.51376971208660    5.51847034011405
H         3.17323718175689    0.72335912220441    4.49562740786452
H         2.31507968177144    1.42365130784539    5.86652744149041
H         1.48808628428359    0.29607450583047    4.79441412927871

