104
CSD_code = SOCLEB | q = 0 | S = 0 | Stoichiometry = C48H48N3O4V | MND = 7
V        10.12128908975430    3.75723624302775    7.10079752094762
O        10.61086089064623    2.62019826149142    6.22617959487731
O        10.54805665337793    5.20189078009739    5.47874963314815
N        11.76676866930430    4.85706900275266    7.22167408436705
C        12.85522752322695    5.83011774029852    5.23097882389785
C        13.28405989581059    5.12053769573821    4.10467833926363
C        14.38593221780146    5.58633447631894    3.40596234604351
C        15.05635509773309    6.73959833143644    3.79400935998414
C        14.60005016407052    7.43464277137281    4.90297308011105
C        13.50394864872410    6.99580972418676    5.63366240975538
C        12.56222985777315    3.88320816002161    3.66396144080566
C        16.25960830477375    7.20720954270663    3.03275078478781
C        13.03595044686404    7.77523199045625    6.82588009467697
C        11.69328646932276    5.29227669806370    5.99152930357869
C        12.92144264766594    4.73695209268040    7.97939448033106
C        12.91778260199606    5.23107271009008    9.28524043271114
C        14.04737277641478    5.11969010664103   10.07191954381511
C        15.19120334940217    4.51969017780789    9.56894587116352
C        15.19573141235538    4.01812003867146    8.27744059992797
C        14.06908964417355    4.11688736549476    7.48285677578679
O        10.95807614951410    3.09336047282667    8.89808450030502
N         8.99465101462375    2.54590880063449    8.25857276061512
C         9.78925586898371    1.63455539735406   10.41484965814747
C         9.81557196262405    2.27855293121101   11.65382910019454
C         9.66277169214788    1.51956049577477   12.80419246067478
C         9.50479632192040    0.14228349956401   12.74432816082699
C         9.51469460219446   -0.47748615586524   11.50237061035699
C         9.65695508233006    0.24796892998261   10.32853951704336
C        10.01747488217739    3.76125050717315   11.73128892211099
C         9.32215644429123   -0.66917757130974   13.99089187246673
C         9.68416402378995   -0.45808211471387    9.00631786080103
C         9.91635878378101    2.44933314630954    9.17701419467618
C         7.74030087641269    1.95951308849149    8.24836041888192
C         7.30354504720974    1.34398597541014    7.07264024571653
C         6.04394126604286    0.78172814722311    7.01055358603083
C         5.20816101400092    0.81485552490325    8.11649696707888
C         5.64500445345151    1.40388820975365    9.29134167546289
C         6.90140642221593    1.97766502815810    9.36495860599999
O         9.16306793174153    5.32009796559911    8.19498076040373
N         8.37945883239739    4.24250275563914    6.48134138067535
C         7.18945175955372    6.28195725737192    7.23894027274034
C         7.04468389717845    7.11283438109367    6.12710046975584
C         6.02929205940985    8.06268508506822    6.13183104395758
C         5.16295183882092    8.20322842605625    7.20210240723180
C         5.32871757072797    7.36914156605936    8.30072310562517
C         6.33236984666686    6.41690618159389    8.33932959295096
C         7.93529868452176    7.01610647053248    4.92646133738973
C         4.07933647381526    9.23801401394411    7.19649033028702
C         6.47171565485124    5.51309758407864    9.52681158098286
C         8.27360715432296    5.25677730098807    7.31693332651582
C         7.53636376079085    3.88841912860145    5.44941267150231
C         8.10570125046857    3.33268137860913    4.29982150693931
C         7.30221235259793    2.93095504621267    3.25157994457700
C         5.92427111215205    3.06943840488961    3.33188518899490
C         5.35433923616384    3.60040688683410    4.47669597361617
C         6.14611057255492    4.00293773412862    5.53585763498179
H        14.73041464437418    5.04030478162605    2.53894931843564
H        15.10595785060882    8.33912387611280    5.21024917630634
H        12.21015048593967    3.29895556965906    4.51814890149205
H        11.68383006157335    4.16491168493565    3.08158057697106
H        13.20380796463371    3.26256933251353    3.04187833240737
H        16.12019484660691    7.06293815776956    1.96352968351354
H        17.13641508001027    6.63448994724287    3.33617021239580
H        16.45812202603990    8.25860341405374    3.22485658106030
H        11.97605287586061    7.61086518660739    7.01155969313353
H        13.20764744302845    8.83946218595447    6.67582511245489
H        13.58766336237603    7.46419115030138    7.71447264938306
H        12.01658855917090    5.69651283338584    9.65980762239125
H        14.04036503940685    5.50318631117825   11.08260773504712
H        16.07409447495654    4.43561370103498   10.18542579322694
H        16.08291586241108    3.53981576435592    7.88836807096207
H        14.06244721383186    3.70319914648202    6.48436165034549
H         9.67197817686244    2.01326665704724   13.76586299244519
H         9.41186138101268   -1.55192186198424   11.44594383315815
H         9.46958442793841    4.27638699730238   10.94271619567254
H        11.07515429743086    3.98767770842985   11.59138751694887
H         9.70276758942461    4.14784401055873   12.69858289029744
H         9.95899207055596   -1.55132017469838   13.97055352801447
H         9.55911792358434   -0.08446723267723   14.87600081306610
H         8.28854501548005   -1.00673252366497   14.06845689478081
H         8.66677356003494   -0.64908069498772    8.66163032368920
H        10.19257102811713    0.13894032415416    8.24896335165085
H        10.19217334385705   -1.41567357864378    9.10261978118846
H         7.97901508114832    1.31529456050349    6.22717428866626
H         5.71201440392217    0.31414075892726    6.09549932992881
H         4.22189484423965    0.37864403675483    8.06511805468200
H         5.00112440523630    1.42329752598778   10.15879599424549
H         7.23969193496138    2.43445077686634   10.28393701010159
H         5.91912337692328    8.70661443121291    5.27055622161142
H         4.66093377052702    7.46678656069319    9.14526748346244
H         7.46106408486439    6.39465301436407    4.16474511789263
H         8.89793886353734    6.57062752807993    5.16489557726581
H         8.09884106723679    8.00409075476038    4.49925929082075
H         3.95281128989228    9.66400885586261    6.20456239126243
H         3.13384730409320    8.80450451489596    7.51733044774214
H         4.32773553055939   10.04358094613145    7.88760868041975
H         5.77758378133579    5.79924610850394   10.31381506740297
H         7.48667039486137    5.55895409504821    9.91838567684948
H         6.26998064572501    4.47890642429113    9.24055900330919
H         9.18363635417433    3.22519739319376    4.26934081466237
H         7.74913630873745    2.50528974142028    2.36500633032450
H         5.29776664532750    2.75633291192049    2.51003025611026
H         4.28095109924007    3.69616158216401    4.55210822073824
H         5.68996995070290    4.39502901482187    6.43258134556609

