30
CSD_code = SOCPIK | q = 0 | S = 0 | Stoichiometry = C13H12O4W | MND = 10
W         2.32783089939202   -0.21415590305501   -1.60361774282770
O         2.16998388660121   -3.00321283295603   -0.23127418844209
O         3.13964950644215   -2.56297096403694   -3.48218313181327
O         4.92971244916501   -1.64670123162600    0.49570782940478
O         5.85848369828824   -1.95482340686046   -1.52849950918090
C         2.28199011440366   -1.95391241547814   -0.68688712627371
C         2.89771917859660   -1.66970876174098   -2.80547101457066
C         0.78183151369049    0.76036209354007   -3.04398977030146
C         0.09433770891280   -0.00160115192907   -2.05336493662117
C         0.33282502120946    0.62700917823604   -0.79314397887368
C         1.16178941432186    1.74967867196573   -1.01593772305647
C         1.43395251381105    1.83221282494248   -2.39906723584877
C         4.35406504762215    0.65897102047099   -2.28242069840852
C         4.51446552321088    0.00485071552378   -1.04617821897727
C         3.76532636387773    0.34720300857201    0.10909498958925
C         4.20422539040475   -0.62603892286851    1.18543124569242
C         5.18286758311015   -1.30027239257505   -0.78405475979506
C         5.12157366353304    0.03527657572274    2.21741438202275
H         0.70009833389231    0.61992045581465   -4.11329820522939
H        -0.64845217541762   -0.76699600605099   -2.24803571499068
H        -0.16561459236509    0.38103027097400    0.13512983037206
H         1.40999955100500    2.50338870997690   -0.28070266069948
H         1.93563582924568    2.65086382096489   -2.89567201680932
H         4.28160318212670    1.74499110784632   -2.26417140042114
H         4.92196299751056    0.26400873898535   -3.11873974073321
H         3.64500083821358    1.38234847103767    0.42250123950723
H         3.37214405574490   -1.11868908521948    1.70322854683711
H         5.51670086959361   -0.72016158240960    2.89037139083604
H         5.95337842086829    0.52384032587461    1.71459435377856
H         4.56531321298873    0.76978866635742    2.79323596583342

