50
CSD_code = SOCQIK | q = 1 | S = 0 | Stoichiometry = C18H23AuClN4O2S(1+) | MND = 4
Au       20.75433876445997    4.75075303066162    5.43354525446748
Cl       21.78445832748288    6.59774359852779    6.32741428649129
C        19.40745095318082    6.00729706630629    4.65729407090395
C        19.39810602109745    6.14320470261342    3.27710428388365
C        18.53134452591058    7.02456527284215    2.65200905587497
C        17.66253256720458    7.79167468200098    3.40792000474176
C        17.67410815664806    7.67239940503200    4.78297815245125
C        18.54248841739024    6.78451809826404    5.41851970764854
C        18.50144838369647    6.71874365470261    6.92168361365070
N        17.25320052085098    6.04149820651693    7.38835871545712
H        16.47921633825747    6.48555217096326    6.87853188430639
C        17.04212987480695    6.23161004678561    8.83171998648582
C        17.25245536665389    4.61228823885262    7.03586690797514
S        19.54417317595993    2.91478821279075    4.75238097083227
C        20.79615161578271    1.74432226292665    5.21434741897177
N        20.48454451746009    0.47018082750843    4.94953067937071
N        21.90245745263250    2.04714900286058    5.78246793675550
N        22.17233514826325    3.34480262430482    6.06690294862039
C        23.29397958476359    3.67377637999571    6.63235605152973
C        24.41022753658445    2.87898242388212    7.03254341324306
C        24.50163205552249    1.48977667021186    6.82720210500826
C        25.61832463156898    0.78350130473715    7.22267227016301
O        25.80168359193402   -0.54588244606841    7.06229522965948
C        24.79492854406852   -1.29359416554106    6.42523373119827
C        26.68759863017695    1.47063731495825    7.85341046385855
O        27.75367640482506    0.74912775412227    8.22676784958662
C        26.59329763561598    2.84265331391444    8.05687394602762
C        25.47778839850237    3.54248105439924    7.65326918631159
H        20.07182272415965    5.55471377575287    2.67316362090301
H        18.54422089998902    7.11219115238562    1.57719837726597
H        16.98996757311371    8.48627031177284    2.92995448574570
H        17.01963153776626    8.29539374374305    5.37883914957605
H        18.51381612999104    7.73228344499870    7.32900266733812
H        19.36591037269623    6.18164807864119    7.31404915048323
H        16.97019583371967    7.29132320268251    9.06960307119738
H        17.88157672173187    5.80691695137130    9.37979201622576
H        16.12606905464590    5.73662566051914    9.14964252887347
H        18.04626485830860    4.10164847586796    7.57777237647412
H        16.29787292476658    4.15862427650268    7.29461858429651
H        17.42815017013790    4.48532521925394    5.96859968049722
H        21.17000360605805   -0.24981881240719    5.09781341550976
H        19.65849066973149    0.26529287494757    4.41577709713634
H        23.38027560999981    4.73582725564030    6.82634393587756
H        23.67525805149231    0.99460922058195    6.34817353617534
H        23.85651357360392   -1.26263256466505    6.98893052380593
H        24.62162910451126   -0.94132303214631    5.40304932632152
H        25.16561356527199   -2.31650012505618    6.39660605184152
H        28.42582461253709    1.30885869964274    8.63846104003614
H        27.41312834329619    3.35957732179914    8.53599911926474
H        25.42468692116619    4.60769415909462    7.81591011966542

