70
CSD_code = SOCRIL | q = 0 | S = 0 | Stoichiometry = C23H37BN6O2Zn | MND = 4
Zn       10.49378895292992    6.06085026697487    5.68322533406261
N        11.21027795584900    5.15140676950898    3.22043578713312
N        10.21937246257828    4.86844846086641    4.07858066457660
N        11.14231232656780    7.60716706136554    3.51029436780567
N        10.27324167969233    7.72447387077113    4.52580955181770
N        12.96783000083109    6.32729503887214    4.58426410281848
N        12.48037007517994    6.37598329738306    5.83271468263349
O         9.20089719139713    6.23162807651324    7.21490400500533
O        10.44959984657924    4.46139622200977    7.10498224733695
C         9.56903548591857    5.12293929951352    7.68116567168894
C         8.91574083512458    4.60274655570398    8.93913670898605
C        11.20053537120442    4.27439840009546    2.21286633987965
C        10.16650170739466    3.38997594291811    2.41925017561076
C         9.56159394658772    3.80526637385334    3.61084160691467
C         8.36168236134024    3.18936418069220    4.27757819850340
C         8.84555546813875    2.25414632289273    5.39344048087787
C         7.55538487730811    2.37621840077600    3.25719995689422
C         7.45881515912258    4.28484183267294    4.85059350211806
C        11.04783306874528    8.67170536038532    2.70875465560294
C        10.08445192933871    9.51265209501649    3.21784520934734
C         9.61559108277609    8.87547762031604    4.37251199222476
C         8.54976738329951    9.36289957679338    5.31498679917910
C         7.40711102187039    8.34281905974947    5.35794271699619
C         9.14959330851797    9.53235960326169    6.71480793190235
C         8.00003533645373   10.71131529285457    4.83797892440857
C        14.30300733510130    6.35202605695863    4.61841556494207
C        14.70074641021623    6.42119008001054    5.93408090441020
C        13.51383732594312    6.44214180924774    6.67510131086995
C        13.38444162399503    6.53233392707540    8.17131595981000
C        14.67224720401100    7.10615322010804    8.77498803599518
C        12.21911213768995    7.45236696696471    8.54424772179925
C        13.15505264074637    5.12186884661142    8.72972014830366
B        12.07582863442030    6.40572416881256    3.34498117287329
H         9.55740468832578    3.86721339103336    9.41448023505308
H         7.97382051875228    4.13111934642757    8.66541259192625
H         8.70628346262187    5.42821011705501    9.61313450177829
H        11.91677771558923    4.33189326172506    1.41835369243882
H         9.89051433026571    2.56866938595158    1.79218940861235
H         7.99427044882986    1.81990713175481    5.91366415745256
H         9.45744883950702    2.79815359725412    6.10665107824233
H         9.44410334619807    1.44744266582270    4.97509477981357
H         6.64786747909282    2.00125413580665    3.72524133670717
H         8.12474919469182    1.52334003652172    2.89724528674438
H         7.27360221583026    2.99351281971354    2.40697439123844
H         6.58729026208152    3.84021663047967    5.32666651217630
H         7.11905400056626    4.94800538734985    4.05775532174532
H         7.98835456803981    4.87759556315586    5.58906269360666
H        11.66220662434205    8.76659059714749    1.83630360245544
H         9.77199928437329   10.44950803912598    2.80755411245711
H         7.01545822029018    8.16664378479657    4.35805206568763
H         6.60096279302089    8.71426651528988    5.98635461502878
H         7.76061085626312    7.40394180591828    5.76982399000806
H         8.40287353336323    9.94132769104031    7.39154937748204
H        10.00049816714571   10.21006525231473    6.68578758753223
H         9.47531842432571    8.57222514079981    7.09986623379733
H         7.22956494297504   11.05417021673903    5.52498666316883
H         7.55753849720763   10.62260456973379    3.84844128478934
H         8.78573861283372   11.46261660231168    4.80676753135340
H        14.88294800548641    6.32234632896527    3.71822969792284
H        15.70542288096341    6.45698745802896    6.29906354959382
H        15.51090484543824    6.43166259756930    8.62355990723764
H        14.54202113467393    7.24561399804019    9.84589838996969
H        14.91221782579861    8.06920422993922    8.32977306840918
H        11.28338093254945    7.07443710841360    8.14619255607849
H        12.38338816957004    8.45164824639854    8.14617842362031
H        12.12895257457600    7.52095471657629    9.62633884347390
H        13.01648081344830    5.16398305199879    9.80795237630202
H        14.01225557660683    4.48715941909358    8.51420551130271
H        12.27622963548119    4.67326107234447    8.27690103015973
H        12.74369443196202    6.53336802981663    2.37493116129973

