60
CSD_code = SOCROR | q = 0 | S = 0 | Stoichiometry = C29H26N2OPRe | MND = 8
Re        0.55924709615710    3.31671389901121    1.48984214268243
P        -0.39535219089158    2.80990757731489    3.61387625709461
O         2.20925142713453    5.52064884915174    2.50403715815368
N         1.55190344502428    4.61813604349675    2.10639259519199
N         1.90469584226863    1.76481358179117    1.74926010840768
C         0.21653672333015    3.74753266940138   -0.85061479616245
C        -0.83073251927182    4.38546921396556   -0.13120218526789
C        -1.60133591194200    3.37845686767739    0.49145772396745
C        -1.03053597229819    2.11886546981505    0.16596950270547
C         0.07070649058354    2.35065269073362   -0.68235936333331
C        -1.77446262237506    3.89536443999769    4.10331679212848
C        -1.65736591397400    5.23898361575676    3.75869820929010
C        -2.63976402642966    6.13989917336901    4.12368439210214
C        -3.74773900377732    5.70404775668679    4.83367307582373
C        -3.86518026773527    4.36930267477515    5.18449243275625
C        -2.88138564963968    3.46362345733231    4.82631131410734
C         0.70191891517014    2.90997530898059    5.06599622070140
C         0.17119685848949    2.88548286610623    6.35253074379159
C         1.01438990066596    2.94404110648530    7.44676876578180
C         2.38574521393659    3.02773129385738    7.26395332797699
C         2.91517911955502    3.05202194315571    5.98399858771681
C         2.07860795908216    2.99418608993743    4.88285061841416
C        -1.06130622081833    1.12239839471376    3.71120373210597
C        -0.29223635739435    0.09784654835933    4.25627039304553
C        -0.76115209436164   -1.20353409778469    4.24009775642709
C        -1.99328715552272   -1.49376761682026    3.67673800391068
C        -2.75806708916787   -0.47914008814761    3.12284521465659
C        -2.29208199516897    0.82235320113998    3.13174116101369
C         2.95557222372102    1.46752208611621    0.94033502500500
C         3.54747395659719    2.44071588156229    0.11885920869770
C         4.60705224476437    2.12311103854027   -0.70220479714617
C         5.12256850601921    0.83577737622202   -0.73004211550993
C         4.56526832629040   -0.13087083893894    0.09116324721598
C         3.50196721919893    0.17376556653807    0.91434977552339
H         0.90952507015566    4.23328942449808   -1.51937727821480
H        -1.06876523415731    5.43809539206137   -0.16233810899890
H        -2.53123178667892    3.53940244602217    1.01980124246741
H        -1.47244680472704    1.15397427402529    0.37448245364117
H         0.67096210306823    1.59467983822088   -1.16556107561576
H        -0.78632164944698    5.55881894671372    3.19910007198523
H        -2.54507843592971    7.18092824797783    3.85349602696141
H        -4.52089525520986    6.40411306441153    5.11328611781064
H        -4.72742100972407    4.03015441627308    5.74002780940859
H        -2.98043027599982    2.42314626149433    5.10424022644896
H        -0.89846525076392    2.82584625095951    6.49569375023744
H         0.60134660754723    2.92682461967555    8.44458917608053
H         3.04034408865695    3.07588369397168    8.12138981699245
H         3.98263884949608    3.11877081535455    5.84020239497615
H         2.47866207467557    3.01129079525916    3.87625603345563
H         0.66791144274235    0.32946258160494    4.69605847167286
H        -0.16212781498914   -1.99502324928109    4.66556667002054
H        -2.35692127729391   -2.51039923837696    3.66464615051005
H        -3.71675176061733   -0.70484652012668    2.67850085056058
H        -2.88452940531107    1.61339842920304    2.69242333285335
H         1.67411374599874    0.99542406297963    2.37438574959471
H         3.16517895200160    3.45354715436243    0.15449969548084
H         5.04395621948068    2.88974077680410   -1.32701084321746
H         5.95228522195198    0.59172123522876   -1.37641118637023
H         4.96306394967598   -1.13655153866765    0.08801296059854
H         3.07150115813555   -0.58802622103761    1.55234926184380

