38
CSD_code = SOCWAI | q = 0 | S = 0 | Stoichiometry = C15H17FePS4 | MND = 5
Fe        0.56087666236864   -0.32136820846882    9.05306115199603
P         0.10021939182499   -2.39848838679988    9.45691710290259
C        -0.86458771462709   -2.73555101694608   10.97353779574791
C         1.52496934545155   -3.52430492576853    9.66544878609763
C        -0.88268060565220   -3.27402422219263    8.18739409718165
S        -0.87013422987568    0.60972894582041   10.39632707308619
S         2.09222003724507   -0.20293382651332   10.59913118928757
S         2.11144539654482   -0.79085354607857    7.59459871105145
S        -0.84927513582823    0.03542140307207    7.44067613060430
C        -0.02563244358983   -0.40156094395596    5.98292080384496
C        -0.67426526248581   -0.37836479391264    4.74514318822108
C         0.01220084179873   -0.72649251728492    3.60605743909798
C         1.35606700379712   -1.10165164335945    3.67635272508586
C         2.00937154626371   -1.12856485421694    4.88547699869991
C         1.32544443524119   -0.77977185219083    6.05325537478150
C         1.28929010835249    0.39178025165112   12.01176755784897
C         1.96018359080281    0.51678988955420   13.23135792839879
C         1.29342071546080    0.99873375335882   14.33254945820238
C        -0.05147916427479    1.36548717860414   14.24129410513552
C        -0.72511531800745    1.25093460032848   13.04852551389769
C        -0.06255712491305    0.76243152053584   11.91905492058265
H        -1.82117888286961   -2.21867833075042   10.90682343790129
H        -0.31971733075573   -2.35506252328370   11.83801534945795
H        -1.02602423987170   -3.80814682593585   11.08200339358861
H         2.14147742163315   -3.17135870354616   10.49073293077864
H         2.12453589748488   -3.51395810097449    8.75652447025282
H         1.17119032564461   -4.53510101504592    9.86844382370155
H        -1.83600889632635   -2.76196466759660    8.06221094798775
H        -1.05027990506662   -4.30703485297144    8.49253124294786
H        -0.34520418754171   -3.25146790507671    7.23891261348960
H        -1.71108194857262   -0.08164309198596    4.70941413499230
H        -0.48906655989829   -0.71010173618436    2.65011573957236
H         1.88452549176745   -1.37046956002708    2.77414687439283
H         3.04807866389865   -1.41204586687996    4.95793455569076
H         2.99986421300069    0.23239185122266   13.28288559272301
H         1.81183715081545    1.09619111800735   15.27443658529412
H        -0.56362199265462    1.74189568376543   15.11385292097682
H        -1.76250729659864    1.53367772202744   12.95816733450078

