132
CSD_code = SODLAY | q = 0 | S = 0 | Stoichiometry = C52H75O2P2Ta | MND = 7
Ta       -3.36545466561158    2.94122815312064    3.78647457086569
P        -3.92384035182815    1.85190075062305    6.28757084116584
O        -1.57173793336239    2.84348697410392    4.04488269592447
C        -4.16064397819202    0.18411432699785    7.02249976314383
C        -4.08258639457423   -0.92492949411039    6.19195775294155
C        -4.24760724662345   -2.20349860385519    6.69391939566721
C        -4.49299936276594   -2.38528424047111    8.04300816270687
C        -4.57392554182316   -1.28478183837078    8.88152595355145
C        -4.41026262059056   -0.00757997818237    8.37790829947067
C        -2.68394874928782    2.56005952661491    7.45997173118751
C        -5.45795530440724    2.67976036541226    6.90217924949163
C        -0.24551043086406    2.80922726574776    3.96734922758072
C         0.46777238278696    3.97759762241495    3.61038503931116
C         1.84224065500701    3.90823051534799    3.46457680945400
C         2.52436520120432    2.72058037372704    3.66591886934031
C         1.83191692529383    1.59274722339474    4.05914188816906
C         0.45496333441496    1.61748666392617    4.22776123083098
C        -0.29806995703850    5.26806090169079    3.47030269980161
C        -0.51490799146427    5.88423532137512    4.86056732201411
C        -1.43404212686701    7.09653486832345    4.75839053156501
C        -0.86755681366775    8.12890378846484    3.78773836024122
C        -0.61035373430848    7.50250802027928    2.42013986034304
C         0.33661849452418    6.31248852964437    2.55313716382875
C        -0.28221718815678    0.40354162288665    4.72677798371933
C        -0.12906502850606   -0.79272289859806    3.78504358659833
C        -0.93923311458527   -1.97032192082040    4.31357187046363
C        -0.48343432030303   -2.35703802545905    5.71656637106142
C        -0.59257292595933   -1.16421005623452    6.66086388623462
C         0.21177849436734    0.01310123364894    6.12414959753429
H        -3.44238231126316    4.18213796259772    4.91615733013244
H        -3.36520258116386    0.58275874178084    3.78614358293050
H        -3.88130234589830   -0.76652952261393    5.14826642894601
H        -4.17868726285169   -3.05458788563421    6.03263620555452
H        -4.61993891336645   -3.37988655466995    8.44517707575773
H        -4.76489775187014   -1.42332916857752    9.93626396914372
H        -4.47752232558024    0.83499227566652    9.05129857206862
H        -2.98573557664366    2.43147033435099    8.49691612664552
H        -2.57003729288297    3.61996834864672    7.23777377111532
H        -1.72797749042591    2.06508454766318    7.29923026036951
H        -6.31647431705677    2.28622897560711    6.35889568536668
H        -5.38120117961057    3.74686238642659    6.70247364741019
H        -5.59980588119918    2.51381930971730    7.96792886232567
H         2.39584606022186    4.79211547943183    3.18962529470173
H         3.59558788430614    2.68255326488656    3.53477252221696
H         2.37191867306738    0.67618229962447    4.24345209236916
H        -1.28730039599936    5.02605097661576    3.06857737605865
H         0.45071646954043    6.17614301161034    5.28181834407764
H        -0.96485665228480    5.13544969892279    5.51662351530508
H        -1.56538149775790    7.54974972478492    5.74373311281451
H        -2.41227709117154    6.75839228413641    4.40844985494968
H         0.07173572305990    8.52121912700802    4.18545713633844
H        -1.56284486281928    8.96523673309529    3.68831402372363
H        -0.18145671525815    8.24818988008630    1.74659471915812
H        -1.55773762772003    7.16606779489414    1.99276916270690
H         0.53852386158167    5.87762786888328    1.57171278733112
H         1.28216577598455    6.66275017926407    2.97133450510831
H        -1.34758656466662    0.64538783604376    4.78665950850217
H         0.92376501732930   -1.07590696106418    3.70485005201189
H        -0.48009104668840   -0.51583122118260    2.78806017291256
H        -0.83919310067714   -2.82404656643175    3.63840746514579
H        -1.98999228987308   -1.68530561362080    4.34799336006355
H         0.55489029851870   -2.69868751199813    5.68061777492790
H        -1.09431936641027   -3.18113257102153    6.09293743454342
H        -0.23475910782306   -1.44108012307500    7.65631193458627
H        -1.64044588894845   -0.87194805648334    6.74978484809524
H         0.12851089492016    0.86863461330332    6.80030814638668
H         1.26840917619469   -0.26131811352420    6.07469031522145
P        -2.80718390715109    1.85193006530193    1.28453547614291
O        -5.15916006523141    2.84391771358163    3.52780313264087
H        -3.29009577384464    4.18270687047613    2.65721101354229
C        -2.57004755190062    0.18420654968821    0.54976441258568
C        -4.04684092742324    2.56058392197600    0.11222695222122
C        -1.27271480828296    2.67987867450620    0.67096578768882
C        -6.48539888856745    2.80946463542760    3.60549390807206
C        -2.64811637643809   -0.92489153907580    1.38021680228313
C        -2.32036430338256   -0.00724664449715   -0.80562480383138
H        -3.74401062396817    2.43313044270952   -0.92453170937827
H        -4.16157036516430    3.62023819787812    0.33527780185827
H        -5.00258678673952    2.06477042939514    0.27167519862687
H        -0.41440299759828    2.28655211502108    1.21472784405547
H        -1.34972327225506    3.74701285516744    0.87037824636309
H        -1.13040229637536    2.51369554222960   -0.39466700899415
C        -7.19873556720905    3.97781057581299    3.96240918592205
C        -7.18586949012922    1.61761973530082    3.34541629023309
C        -2.48296787940319   -2.20337524972601    0.87810782494962
H        -2.84971428052038   -0.76661198279634    2.42388328484007
C        -2.15657011259073   -1.28435045254539   -1.30938425233251
H        -2.25328554013721    0.83543458630882   -1.47889290148080
C        -8.57316797825208    3.90836888893479    4.10852175951188
C        -6.43288424656738    5.26830787634373    4.10200247363208
C        -8.56280435319224    1.59279756416765    3.51434420973078
C        -6.44881983678981    0.40367137012545    2.84622612623886
C        -2.23744822530669   -2.38495618753826   -0.47098834470394
H        -2.55173572558530   -3.05454530189247    1.53929022182395
H        -1.96535881022059   -1.42270642961585   -2.36410218820597
C        -9.25525692543150    2.72062606116916    3.90755380228649
H        -9.12678360204330    4.79226609125177    4.38341376024926
C        -6.21663335089090    5.88416267022248    2.71149372829621
C        -7.06729242403425    6.31286142788090    5.01921927970395
H        -5.44348155181866    5.02638403019233    4.50340923257345
H        -9.10278403045429    0.67617799356694    3.33021905247599
C        -6.60214041930043   -0.79286244641819    3.78758633402568
C        -6.94278092028773    0.01364167602194    1.44872347302172
H        -5.38343866324003    0.64540284743510    2.78645200916392
H        -2.11004942164939   -3.37946777973731   -0.87321486023079
H       -10.32645316063396    2.68253582398522    4.03893358969808
C        -5.29746480559594    7.09647752159575    2.81309282462642
H        -7.18243141792846    6.17599909215416    2.29058285884638
H        -5.76696058431769    5.13525290018992    2.05537908145150
C        -6.12023326482241    7.50288140045634    5.15158106753811
H        -7.26881283980924    5.87819919996814    6.00081297487967
H        -8.01300461354796    6.66303981127742    4.60131894081615
C        -5.79194649111440   -1.97032405568442    3.25879332811246
H        -7.65498361111133   -1.07607203422104    3.86753777752206
H        -6.25125582319903   -0.51629157214946    4.78470773449680
C        -6.13845127817796   -1.16355022003119    0.91171809892055
H        -6.85946473108826    0.86937931872171    0.77282968515001
H        -7.99942568498569   -0.26075964059530    1.49807318536767
C        -5.86358662214898    8.12903104662605    3.78376401872510
H        -5.16652646062164    7.54949705106384    1.82760895590194
H        -4.31908731494820    6.75840998410679    3.16271260898011
H        -6.54883249561442    8.24868612868576    5.82517378783577
H        -5.17267539873856    7.16649369149014    5.57861215014902
C        -6.24764737643942   -2.35665593956038    1.85566161459261
H        -5.89200718077130   -2.82424371184895    3.93371082629887
H        -4.74119212028582   -1.68528241225636    3.22450451935209
H        -6.49621325658556   -1.44013397596354   -0.08382900526414
H        -5.09056449840108   -0.87129861993099    0.82293501673728
H        -6.80304331720185    8.52126088799830    3.38634414053379
H        -5.16827083880263    8.96539248336903    3.88275082472343
H        -7.28598308189844   -2.69828525845457    1.89145182675307
H        -5.63675153546841   -3.18065707203661    1.47909732041492

