41
CSD_code = SODNUW | q = -1 | S = 0 | Stoichiometry = C12H8N4O16Y(1-) | MND = 8
Y         2.60232171838214    2.77788277569721   -0.77610246173254
O         3.81817028607252    1.08271617446948    0.21895304695845
C         3.76464940739793   -0.15205001692518    0.20766771706502
H         4.48003585494761   -0.72600840932790    0.82149328245413
C         2.84170613259062   -0.93572689316410   -0.53021453793179
C         1.84727756246487   -0.35867954438802   -1.35530719247753
H         1.18211372134724   -1.07909993606985   -1.86152828636868
O         1.67432689478290    0.85222326456717   -1.54796489411475
N         2.91022099418548   -2.34348137403272   -0.42956558964199
O         2.11044066134248   -3.01140034929042   -1.06531762193233
O         3.76792692181323   -2.83373371998612    0.28726690850391
O         3.53671460471179    3.83087104968168    1.00692325518662
C         3.38549944745200    3.80258791467206    2.23563397765737
H         4.05897393726609    4.40475078172479    2.86930408467576
C         2.40662348754860    3.05849956592141    2.93608803038047
C         1.47558321044695    2.21751810267281    2.27541436088636
H         0.77337299468231    1.68453963173010    2.93938966605446
O         1.40117670760826    2.03967336256931    1.05459946564227
N         2.36252889307533    3.14841366744734    4.34553338476471
O         3.16830274002945    3.87298246497787    4.90737706922843
O         1.51917027205929    2.49916189202710    4.94311905725528
O         4.69475334043191    2.91754852800468   -1.54993574460919
C         5.42993300427118    3.87162003256668   -1.83122508341458
H         6.48317096113299    3.67035738867752   -2.09462028931703
C         5.06386590199991    5.24025203052606   -1.86561393958566
C         3.75900576354778    5.70756850909795   -1.57046762941272
H         3.63139162211986    6.80152963301241   -1.64580663295687
O         2.78476880958486    5.01424890263381   -1.25498025611827
N         6.05174608414980    6.18972224330030   -2.21611329843872
O         7.17761614498597    5.79250205767301   -2.47062633594024
O         5.73874583902828    7.36913256306920   -2.25355311354486
O         0.50642501586567    3.51299313701611   -1.02073678968988
C        -0.23425110219895    3.64272020287820   -2.00273813162651
H        -1.28797830926377    3.92898520857596   -1.83859790568048
C         0.12570164651708    3.47033487098327   -3.36260205447882
C         1.43020649723542    3.11442476325269   -3.78639081083942
H         1.55291839195949    3.02406192556274   -4.87976107251134
O         2.40928336969357    2.91290399963959   -3.05818407528041
N        -0.86826525475084    3.66745856924627   -4.34924384171596
O        -0.56087211214595    3.52556043812210   -5.52216007450361
O        -1.99400206425884    3.97313459116147   -3.98950564284712

