43
CSD_code = SODROS | q = 0 | S = 0 | Stoichiometry = C19H19NO3W | MND = 9
W         3.05909090073653    3.41429120457924    1.31107857364403
O         4.60707689372775    4.14044904845351   -1.28111323735013
O         5.00094641672809    1.54773340491534    2.86946114942246
O         4.57477814303454    4.64073539362357    3.52960681231154
N         3.96436081812209    0.94978086615811   -0.46635592677324
C         4.13594626757739    3.87870637467953   -0.25837460407559
C         4.30662346867494    2.24079539395144    2.25196771975569
C         0.89054349863174    3.22009446191770    2.16140914238048
C         1.61783280786163    4.05241121291006    3.03831782559036
C         1.95523235780464    5.23523996433128    2.33940524484395
C         1.44980097137500    5.13119126284839    1.02553366102142
C         0.78224546052979    3.89471002751321    0.91388617500531
C         3.02145444229919    1.72104931846533    0.03918599083200
C         1.70821134371366    1.18862477456945   -0.49543018939649
C         2.01659320503099   -0.21909123885761   -1.02135810294649
C         3.50527861040208   -0.13180976416513   -1.32886785066575
C         5.39081519638720    1.08022199646869   -0.34262165032568
C         7.06966122820742    3.81826550005965    1.51988259135272
C         8.16781804405347    4.16996040933538    0.75489983119770
C         8.19746649034676    5.38278036724973    0.08853690573645
C         7.12567500941714    6.25374981603904    0.19779392156635
C         6.02454717865917    5.90852173867218    0.95724296795425
C         5.97951433747311    4.67957315857703    1.61396548442481
C         4.75887205890277    4.32157108231699    2.38235447096644
H         0.35890092646766    2.31979372915401    2.44338328133534
H         1.76754893951024    3.88730747611545    4.09658693393193
H         2.41241507336826    6.11347648892830    2.77550909267936
H         1.44238395136611    5.92135398594630    0.28542495096725
H         0.15467713179228    3.59824531927497    0.08327510152619
H         1.39083736386378    1.84406386471959   -1.31274184932103
H         0.92324237774335    1.17543986878691    0.25797390589065
H         1.83532219096653   -0.95590303802338   -0.23881169919917
H         1.42177703779074   -0.48406124400008   -1.89215240584633
H         3.69370249481858    0.13293272565140   -2.37619910122547
H         4.04829321612661   -1.05157803718522   -1.10123835000299
H         5.79575494763716    0.22848759571368    0.20928611144098
H         5.65160500827394    2.00037889818392    0.17588263699441
H         5.83897422732484    1.09664153642257   -1.33855721968449
H         7.06088010140971    2.88099986467330    2.05616944277210
H         9.00716644617146    3.49354959865169    0.68468410167893
H         9.05565324142837    5.65251349419384   -0.50877292761463
H         7.14920323667933    7.20663197281001   -0.31007134440327
H         5.18547693756501    6.58497012537190    1.04206243160261

