77
CSD_code = SODSEJ | q = 0 | S = 0 | Stoichiometry = C32H42N2Ti | MND = 12
Ti        2.68588886616748    3.32254671614156    7.43718617475360
N         3.25695907102938    4.53954356851795    8.73609309534288
N         1.37181327267341    5.48605673555096    5.96673030693187
C         2.80371819216046    5.91215864076623    8.75277127736718
C         4.25728587245834    4.21576156661529    9.60670446135120
C         4.99065219233761    5.15530521922896   10.35723485751949
C         5.96668753256943    4.75117457345562   11.24686932358246
C         6.25176929809761    3.41028180385966   11.43766543289662
C         5.54689703871527    2.46707197586273   10.70324183067493
C         4.57664383507666    2.85640126354388    9.80602850466539
C         4.48760456186668    2.81047361692559    6.42265427828004
C         3.96224666106519    2.22016086473500    5.16215424257790
C         3.42013333734585    3.16607164447615    4.37023339551924
C         3.55148818771457    4.53023561546436    5.03691164439088
C         4.61877712641740    4.25737147671048    6.09688507542142
C         5.72298909296955    2.13530097460237    7.00255438761943
C         4.24373467532605    0.79434813563125    4.79421458602648
C         2.73545293762678    3.01552634939176    3.05021949251963
C         3.90492419640400    5.65609991131870    4.06728664352865
C         5.47589463411202    5.15860984025896    6.58026924815945
C         1.32268033006741    2.28254729290971    8.97506248782818
C         1.80795413110067    1.23722410806370    8.12876796076160
C         1.26906321107900    1.44054334531203    6.83285728627633
C         0.48619035066620    2.62258741185391    6.86030857415207
C         0.50727542438989    3.13352817566283    8.18703718511972
C         1.43095461316367    2.37043762666978   10.47259932993830
C         2.51566253359226   -0.01690163039048    8.56770729980597
C         1.18363090775671    0.42079254626132    5.73419628334149
C        -0.45325329929951    3.04703114310608    5.77192610669494
C        -0.33106943601608    4.26908879125700    8.69379653608585
C         2.31442496891172    4.66578490841595    5.93066583994149
C         1.11950008337113    6.64852864167564    5.12047232458524
C         1.90436140784564    7.77804007710025    5.58483573920641
C         2.58840667439591    8.64482786842956    6.05362707496746
C         3.40669990934886    9.71945317491722    6.57322143827556
H         1.87741388498080    5.99719970385145    8.18179749980533
H         3.54497060880689    6.58598579995887    8.29648351038553
H         2.61403203028031    6.25120386457067    9.78114814907450
H         4.81366120646582    6.21216650241953   10.23004811181375
H         6.51450466350581    5.50043183582586   11.80155547906677
H         7.01133190176738    3.10395107718471   12.14053038002250
H         5.76132835342886    1.41489154122757   10.83435668728989
H         4.03479300350461    2.11300457168484    9.22871482828836
H         5.51657281289036    1.10972426570615    7.31179391494397
H         6.10227953185897    2.68140013784548    7.86467481958517
H         6.51977059721047    2.10542830727390    6.25234325220317
H         4.09201077368299    0.12347234973044    5.63690763192958
H         5.29002235820487    0.71294770510648    4.49181857500815
H         3.63181180912477    0.45897193610448    3.96089913551541
H         2.51451965958219    1.97181487271383    2.83621585206510
H         3.36347033450443    3.39530700906937    2.24198985797461
H         1.79887781938203    3.57559279003171    3.03829434973541
H         4.91604191885086    5.49367659905610    3.69427884149202
H         3.86831967287622    6.62320230380334    4.56313819182440
H         3.22883958226619    5.67460716512659    3.21603357282065
H         5.46545055794039    6.18450541902917    6.24964681151687
H         6.20071531338182    4.91118828003586    7.33993392496693
H         0.45495657103368    2.16924855534553   10.92172541475931
H         1.75048759786965    3.36378197294879   10.79333192265034
H         2.13846027924134    1.64630848898057   10.87133127546057
H         3.37813312795064   -0.24038904430246    7.93597486210125
H         1.83137605827819   -0.86727409814347    8.50701815641728
H         2.85908582930358    0.05676245632976    9.59822061049048
H         0.16958127610600    0.01139995091083    5.71104418603660
H         1.87124065853278   -0.40446746650154    5.89752390266821
H         1.38185642416854    0.86060114433005    4.75878908442988
H        -0.66325632695425    4.11221879496156    5.83113763761518
H        -1.39814040495851    2.50516612146143    5.87032917100444
H        -0.03964377234932    2.82621345524543    4.78898489629045
H        -0.37667256583310    5.07126683099967    7.95798879653415
H         0.06778936882566    4.66563525465353    9.62622309438097
H        -1.35136233288631    3.92318394766513    8.88129981538177
H         0.05264730010628    6.88687018418996    5.22602199005645
H         1.33115334039276    6.45542229214903    4.06159529637806
H         4.34999976747815    9.32025925241653    6.94704460598921
H         2.88892199920920   10.22295055557379    7.38946683606024
H         3.61870501748760   10.44505333920029    5.78785534184673

