50
CSD_code = SODVAI | q = 0 | S = 0 | Stoichiometry = C23H20MnN3O3 | MND = 6
Mn        0.55422435317634    1.38150924598132    3.52069169346676
N        -0.88811017165071    2.44357958005088    2.70130862438586
C        -0.49331139090607    3.67346963983749    2.29784767668189
C        -1.33194672470451    4.50385698148893    1.54484610344081
C        -2.59111549376415    4.07084360879927    1.20070219520915
C        -3.00185789912690    2.81491887694170    1.64131765013678
C        -2.12420770861080    2.04924909188101    2.37659507213722
N         1.45465012856293    3.13719026268352    3.52190568662187
C         0.83044444038706    4.06326200310054    2.75687224878988
C         1.41352721814325    5.30688885677922    2.48634579989275
C         2.65072251837857    5.60841125045340    3.00576936600700
C         3.27661980638763    4.66255652042233    3.81445173721028
C         2.64701648662699    3.45810603888319    4.03721318346612
C        -0.12922527731349    1.53364160005057    5.22281440431439
N        -0.59237472713346    1.57763484903167    6.30343461364165
C        -0.95841699629969    1.42305302775209    7.60073724763513
C        -0.21255551147052    0.55759322690460    8.41447377423748
C         0.96221794113979   -0.17080023837066    7.84429165213346
C        -0.60303698531318    0.41375924433484    9.73564251478353
C        -1.69602337361340    1.10314122717034   10.23384364261396
C        -2.42218847658649    1.95054756022480    9.41402715351622
C        -2.06791102647419    2.12519131990814    8.08659346873963
C        -2.83347079687939    3.02740444755705    7.16872343176377
C         1.26620454889187    1.33658175965910    1.57041205049653
O         1.18749500459261    2.34965929487132    0.90593990939609
C         1.87677264101007    0.09943765475592    0.93276198142568
C        -0.23358150186833   -0.18373030043404    3.24753266960708
O        -0.70518563578723   -1.22866180932336    3.08143929424614
C         1.98029206067814    0.48627817415985    4.07334054638764
O         2.88770422204132   -0.13983885829001    4.43065592136017
H        -0.98780603516070    5.47416440740592    1.22664499500571
H        -3.24682935560158    4.69140949761688    0.60933460547213
H        -3.98311979642696    2.43501608791154    1.40617004933898
H        -2.42450051020873    1.06760012762998    2.72401691468653
H         0.90056691029007    6.02022214500984    1.86249233790283
H         3.12240366067165    6.55631613375243    2.79657899181681
H         4.24213149673229    4.85598474080876    4.25355538469270
H         3.12104114671925    2.70900052194014    4.66046320400536
H         1.73712057986526    0.53448427979557    7.54227528882993
H         0.67322349802024   -0.72681171632101    6.95151580555669
H         1.38071922105455   -0.85949820733281    8.57269784261517
H        -0.04430928371554   -0.24756626478630   10.38134611236639
H        -1.98486702211369    0.97760360619267   11.26647057903983
H        -3.27583672326392    2.48182349479277    9.80866181210834
H        -3.66866219030763    3.48905362632695    7.68855948372351
H        -3.21601839029731    2.46444646346306    6.31700749071524
H        -2.18532460850416    3.81227222985263    6.77794563791242
H         2.73530170922024   -0.22973711841612    1.51519780686258
H         2.18593913925078    0.31976254798758   -0.09052771330763
H         1.14815488127142   -0.70928074092083    0.93046205691402

