64
CSD_code = SODWUD | q = 1 | S = 0 | Stoichiometry = C24H29CdN4O6(1+) | MND = 7
Cd       -4.44153091842106    2.13608900381200    1.43845611737890
O        -3.49988134246304    3.20316314280019   -0.65284275140043
O        -3.44478399568678    1.58009848989768    3.76588181085009
O        -5.63774863830567    5.49820863536467    0.99957774379141
O        -4.83333196620583    4.04103079164491    2.32144396258643
O        -6.05854902070637    3.43550692265874    0.69473578579348
O        -2.96430187708792   -0.26917112484665    1.43692629664021
N        -2.31135650244034    3.17367495014744    1.75647075860577
N        -5.20932114488580    0.69408343364372   -0.15587172750804
N        -6.16721963020362    1.07287065626720    2.51051862401900
N        -5.51826419238495    4.35254349484597    1.32901371558787
C        -1.66756365802172    3.02957185428731    2.91369561319157
C        -0.66021459942334    3.89619794298063    3.31502262221616
C        -0.32159646520145    4.95881858824840    2.49246611410973
C        -1.00520034837175    5.11786049726163    1.30100412715078
C        -1.99938254386278    4.20341786690618    0.97181345622261
C        -2.79847943047024    4.37477990277579   -0.29811426408569
C        -2.83322435327130    2.25479864806757   -1.39997696970929
C        -1.47125740474435    2.27451199511353   -1.66838497191988
C        -0.91090525097061    1.29575352443645   -2.47624057577012
C        -1.69673657793422    0.29343512182971   -3.01248133052976
C        -3.05069630495703    0.25747856577015   -2.71878055189092
C        -3.63324836885451    1.22652351822167   -1.91763554621116
C        -5.08796619075011    1.16138367481373   -1.54598320791283
C        -6.59232263715123    0.38519193930509    0.20557818718511
C        -6.65233071920513   -0.02473206633927    1.67452084100946
C        -6.03692157070871    0.70036682979154    3.92602057740221
C        -5.57651340363066    1.89099634239684    4.72291786447176
C        -6.45055064022481    2.58473181923084    5.54445130490668
C        -6.03147742899073    3.70228011211231    6.24592920102066
C        -4.72847620506878    4.14037249708179    6.11135912246611
C        -3.83848485369906    3.46435107828281    5.29152924528668
C        -4.25537279889819    2.33876282646678    4.59900946785240
C        -2.05984914234987    1.85265644304586    3.77837658066144
C        -1.77313134212924   -0.70714751109848    0.80035860377620
H        -3.00771482077980   -0.67967032389520    2.30893479491753
H        -4.66519219570267   -0.16577105809818   -0.07558016361390
H        -6.85731095771961    1.82594194877305    2.45814385620143
H        -0.15577287509166    3.74564338895808    4.25665636333109
H         0.45258633371290    5.65245502932980    2.78073574057404
H        -0.78615614224584    5.93874657011055    0.63708530392621
H        -2.15980228469317    4.71708882688831   -1.12093180391817
H        -3.55844653585320    5.15080725634445   -0.13161943763123
H        -0.82820811438196    3.03338719151345   -1.25091790688074
H         0.14712009729583    1.32612362297876   -2.68411362603486
H        -1.26026150829031   -0.45907369572611   -3.64909700729808
H        -3.66686501482691   -0.52873235078895   -3.12878454644225
H        -5.54982000837441    2.15055397528457   -1.61114164206042
H        -5.61229451412682    0.47802782254770   -2.22755002967313
H        -7.19061901384120    1.28723061084080    0.04748302550321
H        -6.99935550770810   -0.42175442970098   -0.41917301043127
H        -6.00349224284833   -0.89223364199884    1.83985653931958
H        -7.68057220320742   -0.30916780166892    1.93751692190170
H        -5.30175624934281   -0.10765592708423    3.99989850328022
H        -6.99511898680391    0.33661833209263    4.32261320004149
H        -7.47028468297172    2.24185112678019    5.63996317891117
H        -6.72178628269874    4.23149393777446    6.88277515360175
H        -4.39443572407651    5.01950708019418    6.63942249774442
H        -2.83760210634409    3.84918412342066    5.18299222678734
H        -1.70021819868431    1.99578321548593    4.80386134276120
H        -1.58214175464008    0.95386371043275    3.37108332701678
H        -1.74668710975972   -0.24292703858497   -0.18318790240746
H        -1.77054025966668   -1.79430921685013    0.68574381776920
H        -0.88385966864741   -0.40417269257559    1.35966543556053

