68
CSD_code = SODXIS | q = 1 | S = 0 | Stoichiometry = C26H30CdClN4O6(1+) | MND = 7
Cd       -0.49245327145252    1.85187358990281    3.08110572813841
O         1.39702697928648    1.91194803961863    1.30096863262275
O        -2.75610070040985    3.28505440567870    3.28723631478140
N        -1.16482189244693    2.99163493130268    1.15264849246941
N         0.80316119023290    0.05283125168794    3.66474383341990
N        -0.87099619280212    2.17026269027517    5.31689445493307
N         1.12711975024089    3.50819022768204    3.62972924485729
C         2.68960189281682    1.66960518870253    1.67752467167877
C         3.76536422885829    2.50240883378459    1.39967728831198
C         5.03397404708547    2.16619497940709    1.85142291054187
C         5.23594744511814    1.00643199212872    2.57494770853609
C         4.16331688000959    0.16737990731684    2.83540908608470
C         2.88872956720402    0.47956293221190    2.39248034481837
C         1.72103625927345   -0.44088430263080    2.61762334458035
C         1.44382812607619   -0.01271496250664    4.98371044890252
C         0.45565787504131    0.22322824280706    6.12225901684307
C         0.07447468330340    1.68702095594310    6.32628803391164
C        -1.35863417321141    3.53620066076728    5.63527430747303
C        -2.86076294293425    3.56345794818767    5.62434769595303
C        -3.58185973830638    3.70524469481758    6.79872474381855
C        -4.96585738957781    3.66674773799864    6.79510820414133
C        -5.63213839201239    3.47176258073850    5.60133093008238
C        -4.93002913819889    3.33110836331915    4.41395049011949
C        -3.54175468817233    3.37792594930996    4.41370049268720
C        -3.43444715175382    3.07728296371169    2.07133338320036
C        -2.47276100085735    3.00474078019769    0.91782069821162
C        -3.00249866114489    2.96597819531154   -0.37121624325053
C        -2.14291410636551    2.91529143680078   -1.44885801025377
C        -0.77732252381467    2.92869763116932   -1.20416124120109
C        -0.33320034929826    2.96389332515948    0.10658451125522
C         1.14136344322806    2.98312533371888    0.41668247368142
C         2.15237596951873    3.94336669690461    3.89872431195389
C         3.41982936528599    4.49573148144168    4.24200394646657
Cl       -2.17456505530094   -0.37628952662351    2.40334189279672
O        -1.53611616551173   -1.51750226128846    2.94204376742548
O        -2.39692708275425    0.54683774559237    3.49031514052049
O        -3.38673070820285   -0.65872272087774    1.76919081400984
O        -1.27135398033267    0.26413189693142    1.48889355072019
H         0.04368465430769   -0.63687366595755    3.67946943665380
H        -1.68513940051415    1.55310486324556    5.35136074849003
H         3.63525836069256    3.40831950336979    0.82917724600585
H         5.86534936014112    2.81589544625033    1.62369853539866
H         6.22337908581508    0.74561220738809    2.92053611217681
H         4.32438100894230   -0.75311126782857    3.37589483742284
H         2.09478438763593   -1.43701476011921    2.89164000731742
H         1.14371387561132   -0.52327215242460    1.69192385402401
H         1.89871441156235   -1.00529020410252    5.11952394676897
H         2.24618198917825    0.73274589859011    5.02004991380433
H         0.91343042093461   -0.13592104869642    7.04577925607996
H        -0.44667860705116   -0.36988828804835    5.94789557552448
H         0.97358242454089    2.31142689993341    6.28626062628039
H        -0.36661761425241    1.79138087492554    7.32906747797028
H        -1.00501732355180    3.83446611277170    6.62783639038529
H        -0.95873919201337    4.24307995861821    4.90105551718316
H        -3.05231245436093    3.85122930949449    7.72867316528042
H        -5.51463552397176    3.78097728788994    7.71590003599681
H        -6.70976371545049    3.42839239664427    5.58238334643973
H        -5.48920059160256    3.17571143091326    3.50680262740724
H        -4.00193014566106    2.13385897164984    2.10482873834899
H        -4.13567418564055    3.90515341999926    1.88330484507691
H        -4.07169112074072    2.96510892233225   -0.51207447120549
H        -2.52173123694255    2.86837827024337   -2.45777143874835
H        -0.07206824141219    2.90067908872572   -2.01926549948830
H         1.39566217846909    3.94454357716577    0.89071684057627
H         1.72337118383709    2.86524059594988   -0.50608535700183
H         3.56028982848314    5.44559990816958    3.72628947125142
H         4.20978397227733    3.80451651562992    3.94607686136734
H         3.46836981301963    4.66591011065441    5.31744593797755

