56
CSD_code = SODXAK | q = 0 | S = 0 | Stoichiometry = C23H25I2N3O2Zn | MND = 4
Zn        1.61579927864237    2.53981842486135    5.77502426567799
I         1.83786930109334    4.79012399954625    4.68236301745017
I         3.01806983858820    0.69552097325725    6.77457835883266
O        -3.00180139208643    2.89521729812244    3.19463959003113
O        -2.67824978222402    5.04574894289494    7.86441448779382
N        -4.24924949140812    4.58747842727530    5.32534960087627
N         0.01696108748318    1.40196268654408    4.66109914408193
N        -0.05059752115012    2.76588767713164    7.23551767349659
C        -4.04283674423480    5.65256464534330    6.08468980309336
C        -3.77445150969719    6.90898134646561    5.55585900275324
C        -3.72172167125803    7.04491949273270    4.17831776414606
C        -3.92257207825785    5.92700559387033    3.38510975116181
C        -4.18500381651006    4.71355406892697    4.00906930593152
C        -4.31093806652786    3.43203231941995    3.22471328758712
C        -2.77344526485198    1.69510203895189    2.59512536747867
C        -3.73884283815185    0.93654113936970    1.94500214110538
C        -3.39643848638255   -0.27489752274054    1.36740024192355
C        -2.09643357595209   -0.74032831243414    1.42689429827482
C        -1.13274982886093    0.01500941732645    2.07350131937955
C        -1.45148269110134    1.22751233104179    2.66170675961171
C        -0.40442542836194    2.02831761112937    3.39303081793659
C        -1.08509791288780    1.24782146929722    5.62224431316577
C        -1.26960045017636    2.50771297362028    6.46403998964600
C        -0.11725497126005    4.01428956984703    8.01868183168579
C        -1.09011679429581    3.91946952061918    9.16566615800649
C        -0.72160413657728    3.28003566787943   10.33806761183281
C        -1.61157019079478    3.14628455635724   11.39020640297066
C        -2.88678257693651    3.66524517483531   11.26927654485084
C        -3.27761170946212    4.30945314727535   10.10731352270112
C        -2.38881316597637    4.43641556378431    9.04653147479016
C        -4.01882882554223    5.39316198128750    7.56939277578539
H         0.34246155722389    0.46377604373012    4.42521018457823
H         0.04577854415708    2.00406637736368    7.91205269847685
H        -3.60153571923745    7.75124130643623    6.20672849636701
H        -3.51104347252383    8.00407080526255    3.72973050074090
H        -3.86690090575964    5.98980513806811    2.30986121381737
H        -4.67391578210010    3.62755800630738    2.20770150567946
H        -4.99381926319160    2.74668510783306    3.74184790583299
H        -4.75881857908027    1.28246233792979    1.88521369026544
H        -4.15691142318713   -0.85380677048778    0.86555928728105
H        -1.83175546716203   -1.68190966224863    0.97197275782744
H        -0.11204353881550   -0.34001144796962    2.11492218035406
H        -0.79192311165971    3.02494654974428    3.60442234641697
H         0.48548126965683    2.12866828263295    2.76420282677326
H        -2.02439665278444    1.01241164044513    5.11030063430175
H        -0.84130155052916    0.41365825401833    6.28828315757496
H        -2.14261855939420    2.37623960093684    7.11414025359662
H        -1.46090893327882    3.36774079056104    5.81792045726871
H        -0.40127972669898    4.82711365912558    7.34827315463660
H         0.88486510802358    4.21448490639130    8.41157240145966
H         0.28070813984158    2.88457631378190   10.42877867246970
H        -1.30817557227606    2.64597082750063   12.29638105478554
H        -3.58883329523016    3.57490604837988   12.08436770826435
H        -4.27447277265871    4.71584584519398   10.03764519947979
H        -4.69098131633130    4.55838090129657    7.80004238805381
H        -4.32023756392256    6.28495691166719    8.13414269861258

