41
CSD_code = SODYOA | q = 0 | S = 0 | Stoichiometry = C18H17Cl2N3Pd | MND = 4
Pd        3.25097070527951    4.64341005720208    6.61334438605138
Cl        3.45654557064494    5.20945396122836    4.45638726956342
Cl        5.38015191156888    5.12598463125563    7.06338880806553
N         1.36305106309568    4.14783124699782    6.44396672273643
C         0.88488433705641    3.49165044595142    7.51368578038067
C        -0.46782572750544    3.18976922920324    7.59463127386411
H        -0.87180360178317    2.64711555784107    8.43820837381199
N        -1.33225848119445    3.55083611172742    6.66141960038180
C        -0.84964719704459    4.21573061566198    5.62241281799198
H        -1.56273037232362    4.51277805253081    4.86795916392199
C         0.49784338140105    4.51522049408317    5.49942458826438
H         0.91247846479938    5.03608608334860    4.64562257785945
C         1.87949720888172    3.07491387473266    8.57468952640545
H         1.35321980670946    2.99205926921025    9.54075341349017
N         2.96214029165535    4.06211377584268    8.66584671877427
H         3.80825629748592    3.61771385234844    9.02756576912085
C         2.39923907988303    1.69588004399936    8.19551326642944
C         3.36146631627500    1.51669151730280    7.20463256014250
H         3.80818347480561    2.36963158505076    6.66992803606411
C         3.78512013715538    0.24063139334609    6.87263722273876
H         4.53413844462621    0.11455566535986    6.10605892426520
C         3.25425045531760   -0.86478320877156    7.51504629937164
H         3.58782349545343   -1.85668828107267    7.25167037442285
C         2.29364086534057   -0.69213685464941    8.49635928256984
H         1.87482914078595   -1.54718874188718    9.00424626374748
C         1.86833827691723    0.58046248354464    8.83269037457234
H         1.11956892289096    0.70807767615576    9.60152251035826
C         2.64530146687392    5.23879098940567    9.49283818377915
H         2.19375610003946    4.93030871721995   10.44733715735641
H         3.58811210503591    5.75662208642699    9.69233596958945
C         1.71323236063164    6.15074035742320    8.73205569999156
C         2.23971916965093    6.98895006628053    7.74091246948834
H         3.31935656375266    7.12813738499656    7.65323291303953
C         1.38388739406927    7.71691132093545    6.92601478400662
H         1.79300562558968    8.35874667714998    6.16027166094956
C         0.01046480608864    7.62163234253912    7.09653580190658
H        -0.65358739246702    8.17797356941736    6.45251204464771
C        -0.51008084128632    6.82851169221965    8.10390193649553
H        -1.57775899104478    6.76781834415794    8.25259893426272
C         0.33911288350876    6.09328195820116    8.91665406784610
H        -0.07479351863785    5.46767395609508    9.69588647127137

