86
CSD_code = SOFBUL | q = 1 | S = 0 | Stoichiometry = C33H48N2P2Rh(1+) | MND = 6
Rh       -1.03734067537321    4.18824953450451   21.41509545401019
P        -1.85912214088443    4.14192230836149   19.29003508777883
P        -1.29452116262858    1.91899697971963   21.37898878138844
N        -0.18435369058524    0.85579622702617   22.02876776606426
N        -2.57898440905836    1.21468471273762   22.18696883363552
C        -0.80291419940128    4.15877550453345   23.59010354900149
H        -1.03840960014090    3.15301552131392   23.93844560633132
C        -1.68991518949704    5.23217229846526   24.16848504908344
H        -2.70408717250225    4.83181671977856   24.24486598257614
H        -1.35686335913154    5.45850517749728   25.18649636063083
C        -1.73353309661792    6.52753992565491   23.33457342633781
H        -0.93315524490985    7.20450217854191   23.63236009541730
H        -2.67735662443520    7.03526316106005   23.53939852604297
C        -1.63579011307426    6.26862780610263   21.85030595116254
H        -2.56503841562429    6.41163765929721   21.29549314215766
C        -0.45749807918639    6.28657645217561   21.13753913667910
H        -0.51258931325441    6.50827683685820   20.07080018523650
C         0.91737181453004    6.48615367411871   21.72221070511794
H         1.65266302071384    6.19411890987641   20.96789031027972
H         1.06806798322781    7.55277900362897   21.91634879587978
C         1.16991482520922    5.68104157536894   23.01257579671509
H         0.87841396236966    6.26051731053722   23.88844282483887
H         2.24154199681728    5.49260904951195   23.09520269428430
C         0.44270691227571    4.35632310922132   23.03503182618379
H         1.08507397727078    3.48238389980914   22.93257010949498
C        -2.60429593794103    2.48038038008271   19.02832568895304
H        -3.51074745278924    2.45082116773638   19.64607463894471
C        -1.60903458234521    1.46287123101362   19.58672412654535
H        -0.65049458585462    1.60416290102990   19.06577149983831
C        -2.22533405470641    0.11808769683327   19.20516287210203
H        -1.46550439571166   -0.63861438817207   19.01536126677449
H        -2.86442869569744   -0.23985661180869   20.01393926910620
C        -3.06705706332009    0.40759054361962   17.93954720472871
H        -2.73336436483471   -0.18799777924099   17.09183809266581
H        -4.11419762397540    0.16441088025619   18.11952133995319
C        -2.91563491724120    1.91171090665277   17.65035091249029
H        -3.81141388754600    2.33944592325949   17.20232908040117
H        -2.07402808079758    2.08067924743099   16.97644957070498
C         1.21538799614249    0.84878618089501   21.63032110483695
H         1.39484834537895    1.84730445114083   21.20535986252745
C         1.53744714901175   -0.19475418561074   20.56239916154218
H         0.89591644770801   -0.07041663903227   19.69361729398438
H         1.40551395493287   -1.19951917119257   20.95559543745962
H         2.57117741904620   -0.08656835177829   20.24585659164562
C         2.11536081484976    0.65963851597566   22.85234923855228
H         1.81058373147660    1.32193886275793   23.65926961390107
H         3.14693786278983    0.87786476290941   22.59080870831891
H         2.06814023426924   -0.36491861061069   23.21122387569179
C        -0.83279344234034   -0.37112493707163   22.47335934564200
H        -0.23557161891904   -0.84767454422284   23.25205563075005
H        -0.97102219492028   -1.08200663046482   21.65122390120266
C        -2.18214313953018    0.08430996597383   23.01852040137581
H        -2.92532905051935   -0.71397016810679   22.94970271009831
H        -2.08266567972667    0.37647108279149   24.06958902394550
C        -3.79701418383748    1.95728353357237   22.49309162396335
H        -3.65580291772083    2.95469056581027   22.03809286280626
C        -5.01013843891612    1.27796471499199   21.85432407952651
H        -4.86231231877443    1.13307135770676   20.78716940803539
H        -5.89961148801425    1.88406341773129   22.00373311166590
H        -5.17995955516155    0.30561638356742   22.30991073376116
C        -4.04369493466591    2.13847582034718   23.99024188166005
H        -3.16083037572000    2.52465484621389   24.49273385184417
H        -4.32388676955083    1.19511140122292   24.45211923960937
H        -4.85980514530480    2.84074803765605   24.13815711665857
C        -0.47814935434075    4.15733371589265   18.11074499426446
C        -0.65496438810668    4.27705816589615   16.73542825425167
H        -1.64508357908597    4.42843165018770   16.32894372414119
C         0.44322913588570    4.21635756256369   15.89574301803218
H         0.30697713672861    4.31009428484980   14.82911187414560
C         1.71436771670615    4.03516032420669   16.41825340239567
H         2.56571506112111    3.98893765239058   15.75692959557821
C         1.89568533780365    3.91864114445050   17.78764769568650
H         2.88713222886098    3.78160947803700   18.19256199299618
C         0.80207064577342    3.98098048611425   18.63054740142816
H         0.92193973460497    3.89626036311186   19.71274706395751
C        -3.05983134532684    5.33201722732797   18.62939909562288
C        -2.62396338666287    6.48520945557294   17.98003359665935
H        -1.56715693168809    6.64184442444962   17.81084597901989
C        -3.53984795534559    7.42052031350365   17.53501095907508
H        -3.19529188647429    8.30627644172756   17.02344565080259
C        -4.89487320445784    7.22187065582268   17.74562085642168
H        -5.60809743695478    7.95171829298725   17.39539579171939
C        -5.33309294428770    6.08848722356776   18.41157797268949
H        -6.38793947913893    5.93679056476593   18.58354801911466
C        -4.42135427620320    5.15074484414404   18.86052012568978
H        -4.76844989476083    4.27543743085179   19.39112556578603

