65
CSD_code = SOFBUK | q = 0 | S = 0 | Stoichiometry = C24H33Cl3OP3V | MND = 6
V         1.92148961270026    3.44266953762901    2.23448733344672
Cl        3.73694276820277    3.44274989390762    0.74908886932447
Cl        0.36245694510322    3.44184245050967    4.06669698793827
Cl        0.46046154912152    3.44265712960274    0.81566435756553
O         3.18266192405035    3.44249365562153    3.55356732816789
P         3.25423271843123    3.44259636126209    5.04497409926504
C         5.02088355996795    3.44307904089569    5.46644847497079
C         5.45852612095054    3.44333174570578    6.78381302641725
C         6.81330186187450    3.44370678478230    7.06023346284280
C         7.73343729978090    3.44381988889585    6.02347916638980
C         7.29848806493976    3.44356491925552    4.70879969516880
C         5.94346624866391    3.44319935495554    4.43010929376628
C         2.57628443931488    1.96019614651612    5.86652320040623
P         1.88544411659807    1.09088420199755    2.10420351837864
C         3.17143796116701    0.17945254992130    3.01017662375547
C         2.92334007671105   -0.85831382499625    3.90175581250358
C         3.97208181982524   -1.43986361279948    4.59580155153487
C         5.26746954952464   -0.98369993620896    4.41647423542432
C         5.52022074842107    0.05079483791003    3.52853656070237
C         4.47860452941799    0.62814275970962    2.82703427230145
C         0.30984834519217    0.27686296613762    2.54186810215661
C         2.14895595177642    0.45795511216561    0.40804559001642
H         4.74059720325172    3.44323826566896    7.59178104934291
H         7.15432897550989    3.44391211088538    8.08519127984081
H         8.79081474118005    3.44411051855397    6.24376618173424
H         8.01490853808355    3.44364547547386    3.90055976234513
H         5.58640963184670    3.44301178316395    3.41022545031078
H         2.64985084904495    2.08844621966991    6.94302062392703
H         3.15821871937923    1.09255583025689    5.55882899894080
H         1.53329483726628    1.84020909155338    5.58003989854054
H         1.91560804159583   -1.21145967234183    4.06493089669666
H         3.77495986699601   -2.24875005938154    5.28509885304626
H         6.07932382940173   -1.43392136697912    4.96893330706525
H         6.53038462018042    0.40717501843816    3.38861433103488
H         4.66226510963539    1.43737080000330    2.13059390734799
H         0.08203058265672    0.45612059626985    3.59221406561261
H        -0.46850438454705    0.75117141855352    1.94058531606118
H         0.34340491781512   -0.79187338054738    2.32683962108032
H         2.14194909501277   -0.63320535502908    0.40935020099495
H         3.10401692203067    0.82987559039000    0.03808239165346
H         1.35071946630044    0.84267603545978   -0.22927144172399
P         1.88519844340900    5.79445080287374    2.10526995221029
C         2.57555919279331    4.92475893533063    5.86635456209018
C         3.17203918964990    6.70574936810572    3.01019559665934
C         0.30996608359293    6.60828647783129    2.54461687120983
C         2.14710584377435    6.42784515834770    0.40903558198961
H         2.64955517314948    4.79685855631131    6.94286346856456
H         3.15681430144463    5.79270009470275    5.55821616671243
H         1.53239892854729    5.04395911383713    5.58017394354735
C         2.92476232290860    7.74345862871580    3.90207205788083
C         4.47903670353021    6.25709595075215    2.82580279498262
H         0.08325888464052    6.42900853994077    3.59519672221215
H        -0.46895910868621    6.13387259017202    1.94415916110592
H         0.34316529846435    7.67702700290949    2.32955727491172
H         2.14053866831097    7.51900757752797    0.41072434828731
H         3.10163241463539    6.05566989848203    0.03794375197677
H         1.34803274378882    6.04367160987601   -0.22755848191803
C         3.97414230448105    8.32497391622714    4.59517830077203
H         1.91717652557523    8.09658524567512    4.06620883557063
C         5.52129796871622    6.83443043949134    3.52635339502085
H         4.66206619853488    5.44791297606293    2.12914914948837
C         5.26936924949918    7.86885450427384    4.41459710642689
H         3.77765001231717    9.13381749092623    5.28470477175991
H         6.53133764892205    6.47810363138015    3.38541600251633
H         6.08173723363043    8.31907060674135    4.96630240973158

