82
CSD_code = SOFDEX | q = 1 | S = 0 | Stoichiometry = C37H40O2P2Rh(1+) | MND = 6
Rh        4.64517644246462    4.57431515489267   16.69662051994708
P         2.86735917059623    4.98369402278993   18.06809292523322
P         5.85178421626420    5.51875574565481   18.36148946345216
O         6.44690999223876    7.00176026161099   18.12149715681088
O         7.16139848973118    4.76642411373224   18.84622644854353
C         3.42467054605698    6.23414539751033   19.30860541388571
H         3.58602976985687    7.17226161475142   18.75815280532263
C         4.77518030314964    5.76083273493019   19.84922598624370
H         4.64760607621069    4.76781092078584   20.29990634165623
C         5.09784786272817    6.79344946805656   20.92691144500143
H         5.63963151329386    7.63604718072765   20.49343458554322
H         5.71704946187861    6.37541607559269   21.71885896956791
C         3.71535090341566    7.25209983223600   21.45136241859294
H         3.61673452587437    8.33264701524368   21.35372790994983
H         3.58859711908488    7.00292942695140   22.50308583223154
C         2.65619835938010    6.54044411285433   20.58759287713309
H         2.34109147406688    5.61185187119484   21.06654740479651
H         1.77692023059006    7.15990129266463   20.41854062438296
C         1.26586068186042    5.58041941574671   17.45921850375478
C         0.26303725489269    4.67239387898891   17.12531929921215
H         0.41412287086054    3.61556354606391   17.29919342179442
C        -0.92962564532901    5.12139278491255   16.58903742768473
H        -1.70669447224938    4.41391701365876   16.34304470285932
C        -1.12576669879001    6.47505072017135   16.36671962487710
H        -2.05798331750443    6.82375235750690   15.95032983323918
C        -0.12211857701938    7.37999873450929   16.67343282235866
H        -0.27075425053621    8.43381930227676   16.49279253862418
C         1.07352056200338    6.93732158941063   17.20915458898722
H         1.85646883552810    7.64795146823146   17.43357206187630
C         2.49672630830116    3.54090115285254   19.10431987871079
C         3.44072340304349    2.51663262971574   19.13356093588094
H         4.32923346054171    2.59761428081747   18.50701485109428
C         3.24774349732596    1.41678181170428   19.94884352508399
H         3.97927690019791    0.62311604559586   19.97047968180838
C         2.11055309357353    1.33524205380031   20.73739983533336
H         1.95646023009461    0.47661393095853   21.37246760068322
C         1.16802071855492    2.35150644147618   20.70989963202729
H         0.28321045002982    2.28368750244980   21.32430568632624
C         1.35587100431585    3.45573896737847   19.89756936114827
H         0.61739591576314    4.24469936585494   19.86895487101130
C         5.87567491365830    8.04736032829692   17.42326043267950
C         4.88000854259185    7.87519537787112   16.47401805432467
H         4.49852617314874    6.87266259046598   16.25538047238528
C         4.37528797187727    8.97541884847757   15.80214727903701
H         3.59912319884578    8.83655058805436   15.06484089850382
C         4.86081897349576   10.24349546319308   16.07272347587597
H         4.46382218046564   11.09756848500779   15.54753412612778
C         5.85947434315078   10.41001945795233   17.01792956500613
H         6.24522541946398   11.39430052903507   17.23190867733854
C         6.36896287869501    9.31717933456028   17.69587807230900
H         7.14773974679957    9.43008588272147   18.43399173896386
C         7.95694170712689    5.19843206494435   19.91831766904614
C         8.92205893686678    6.17031107652604   19.72051976639432
H         9.03430965394998    6.61892020761690   18.74596296424748
C         9.73410464478200    6.54283206859631   20.77875074313008
H        10.48907749258032    7.29900698956997   20.62949824048406
C         9.58178638315211    5.94732621263685   22.01936321635179
H        10.21686807411168    6.24051462337414   22.84049467510632
C         8.61758699542202    4.97070345103047   22.20475701768320
H         8.50018258398997    4.49917203416814   23.16816367211398
C         7.79771864481549    4.59411575399477   21.15460173314203
H         7.04530365147584    3.82997096566124   21.28033192236078
C         3.55387934630467    4.33729678118380   14.81844049786081
H         2.70216767567723    5.01861933737274   14.87559665679473
C         3.46708045766462    3.15829417007601   15.53167855960113
H         2.53703668323978    2.95692394874419   16.06525414315035
C         4.29754458501250    1.92287564588843   15.29199312499944
H         4.19633424992231    1.27304127826067   16.16493767243680
H         3.87890467297591    1.37803330439699   14.43987762320766
C         5.79251942917903    2.20749712006310   15.04534308957753
H         5.98134842012389    2.36700067848817   13.98375692944284
H         6.36359731812969    1.32797123162967   15.34599062020134
C         6.30014738664941    3.40178727530273   15.81872056403140
H         6.95156968615562    3.16761217640924   16.66109752002597
C         6.34638503684061    4.68288010824999   15.31502578889732
H         7.07469815294710    5.37193005663277   15.74470199523679
C         5.83074066918135    5.11019635427643   13.96329073832804
H         5.77920463056594    6.20191667526397   13.94744096460008
H         6.55731802235281    4.81479296120306   13.19993094985360
C         4.44377755170637    4.53348103671283   13.61107598126553
H         4.54715919563377    3.58005873566039   13.09277887224375
H         3.95106503686353    5.22144755411318   12.92248348298486

