82
CSD_code = SOFDIA | q = 0 | S = 0 | Stoichiometry = C31H40BClN6O2Zr | MND = 6
Zr        9.63905453055417    3.54337496846989    3.06740651443355
Cl       10.09751800556113    5.24786025389079    1.48436722928710
O        11.42535492157528    3.28382027087428    3.71490783985187
C        12.59913995772264    2.82538383515238    3.26906852534132
C        13.58680980126003    3.72330606312868    2.80684558062565
C        13.33393863405535    5.20209113953021    2.83400001217841
C        14.79517470614966    3.23310553543303    2.34102818295093
C        15.06446662232453    1.87564140417517    2.32597119566504
C        14.11475774297591    0.99631893266301    2.80955329631397
C        12.89419015939604    1.44669379131356    3.28941971354106
C        11.91997077793199    0.45465194899772    3.86161302572230
O         8.76153568080486    4.77088449224338    4.23294661670375
C         8.66386362093379    5.02467778312510    5.53155456314223
C         7.51621122796921    4.66081229654309    6.25979642000259
C         6.37128394398185    3.97799933385980    5.56392515676086
C         7.45476528442269    4.95643694440879    7.61374981823353
C         8.49259584932317    5.61169257496310    8.25208566414852
C         9.61271973413205    5.99407617693214    7.52929144016068
C         9.71102542424626    5.71191948262360    6.17953181930922
C        10.89624009669801    6.09460625521418    5.34434480708068
N         7.57126595335937    3.37932841697268    2.15434778229453
N         7.07575343964395    2.15831427104304    1.85109684586790
C         5.93748121914096    2.28433187483017    1.14054953212595
C         5.14649719676911    1.13102409037812    0.63654949463884
C         5.68892185002323    3.63574378583332    0.98852999678706
C         6.73978142969488    4.28857789921141    1.64342821082018
C         6.94798571191434    5.75121985499784    1.81207026518255
N         9.88317064627785    1.96775452150735    1.47930109617228
N         9.16848647455297    0.83956489712854    1.72591537173458
C         9.75910866316737   -0.21634397866482    1.13030319915063
C         9.24689504142792   -1.60863721609150    1.22429408379547
C        10.88154987188632    0.24576116949944    0.47053423072026
C        10.91863524912278    1.62428359657199    0.71003248670994
C        11.88292733345744    2.60999721688996    0.15217032879541
N         8.96752680490572    1.86489981488669    4.37616681330211
N         7.96690645795649    1.08849685041999    3.90826773208088
C         7.34851078356261    0.47109881958808    4.93300956727310
C         6.18542538363319   -0.43798870507853    4.76459379459000
C         7.98669975796202    0.85373389024162    6.10047726356687
C         9.00322360420012    1.72769639564708    5.70340043854411
C        10.06485582864361    2.35842170358337    6.53348657667191
B         7.77737716186674    0.90538648035225    2.38764652930292
H        14.00157684599734    5.71243989848200    2.14368152705026
H        13.51430980154196    5.59667688764929    3.83519421377063
H        12.30168907409896    5.42316300966887    2.55906492485418
H        15.53805823769891    3.93113920626541    1.98149079928428
H        16.00806963293990    1.50907616957732    1.94982394827836
H        14.31916334307286   -0.06562420154031    2.82169777142633
H        10.90982876640659    0.86203272385806    3.85299081659554
H        12.18487912538839    0.22539971341438    4.89522975801270
H        11.94252286946746   -0.47458792030116    3.29407598346489
H         6.68648132070701    3.64026560821709    4.57454041478591
H         5.53818950765204    4.67121265940845    5.43975084649588
H         6.01820226585463    3.12545337223756    6.14307634438374
H         6.57421785901979    4.66994256352096    8.17225012369277
H         8.42579082638498    5.83488713105262    9.30648153142734
H        10.41819323155306    6.51997013955460    8.02264553973105
H        11.59912931391857    6.69893835723485    5.91360071043274
H        10.56659987077221    6.65560346493095    4.46397981188009
H        11.40007413152053    5.18911752980569    4.98608911881145
H         4.29217264922530    1.49582782931469    0.07329312447541
H         4.78840760753948    0.51579095250980    1.46022072749384
H         5.75606046670932    0.50510892900386   -0.01270498576663
H         4.86426553072512    4.08882284706591    0.47719858052610
H         5.98916869846484    6.26566953124630    1.83212121055566
H         7.53875159823827    6.14588734671225    0.98416399164187
H         7.49409457769919    5.94157327445106    2.73843995351550
H         9.95915942426963   -2.28875625446457    0.76554520003889
H         8.29159530771082   -1.70506446861154    0.71073567522903
H         9.10201069542836   -1.89310165867328    2.26478542357750
H        11.57999194660009   -0.32774418141759   -0.10367879138137
H        11.80749749208223    2.61077747650710   -0.93559765766921
H        12.90292616567834    2.33882459958087    0.41887650838524
H        11.66310026292085    3.61288251481234    0.51815689182368
H         5.84388811209218   -0.77731344854449    5.73845246667461
H         6.45556829259519   -1.30499561456967    4.16421461639262
H         5.36914502113433    0.07889494291098    4.26314865432790
H         7.75151721231054    0.54542346029668    7.09854762797466
H        10.61938056417465    1.58563186335690    7.06677581281248
H         9.63389854242119    3.03370076182658    7.27066139146656
H        10.74964539204582    2.91189071674163    5.88750672679100
H         7.15387583073583   -0.06905686639984    2.15759360513115

