90
CSD_code = SOFGOK | q = 0 | S = 0 | Stoichiometry = C35H45F3N2NiO3S | MND = 5
S         0.49640357077390    4.52390588562138    5.46215331578584
O         1.75555692606177    4.28689200415893    6.15599281000470
F        -0.65993651134369    2.49785294681965    6.89354168586468
O        -0.37323985666534    5.47900238208329    6.06116209635554
O         0.66023747327750    4.56067963235039    4.02297867405768
F         0.40059363198497    1.92786467952124    5.09064772774434
F        -1.54231331260070    2.86196305574962    4.96197618563890
C        -0.39522805052514    2.87852147094962    5.64272227094523
Ni        2.21039246563037    3.35267479214837    4.46012507970971
N         5.05713880911497    2.90394824475661    4.90515872333618
N         3.76275654048255    1.96513249141859    6.36324797583701
C         3.78445701836455    2.61539709117402    5.19663477994446
C         5.98594800140005    2.54771862368367    5.97812706497935
H         6.38507776917277    3.46037999634078    6.43331409376990
H         6.82065867716036    1.96555107803761    5.58528454019995
C         5.09600583106790    1.76005635448435    6.93116698088991
H         5.32931555787155    0.69014668830652    6.94170467269275
H         5.14151250741281    2.13169869129966    7.95482678797444
C         5.59315651863810    3.59135566864771    3.78122489977730
C         6.25932972532998    2.85167441006018    2.79635538837238
C         6.87998955309515    3.53803501389668    1.76135559891432
H         7.40125257825574    2.98953427979036    0.99273840406001
C         6.83872094621373    4.91795062973070    1.70004861705336
H         7.32795873065394    5.43578166659579    0.88875033692703
C         6.16410409569995    5.63261634687564    2.66972205601708
H         6.12489527873869    6.70813381350804    2.60363452580915
C         5.53662975868756    4.98601514531016    3.72780577345526
C         6.32115990425532    1.34105589997226    2.83479212869774
H         5.68619603545263    0.98527534574321    3.65108260846082
C         7.75840928685612    0.86847253286077    3.07963577843207
H         8.39522783581607    1.13788913772697    2.24101690111732
H         7.78329766468441   -0.21279562904625    3.19424284625415
H         8.17839456047314    1.32137242029870    3.97545461566269
C         5.79156607646167    0.72669477985358    1.53631670509444
H         4.79762134588871    1.10280458057460    1.30835747955506
H         5.73800010723087   -0.35500475758768    1.63600479584130
H         6.44381804268583    0.95710241983831    0.69866201650873
C         4.76821771340627    5.78551498402450    4.74942891172657
H         4.44409578075471    5.12701427705803    5.56150199388152
C         5.60689067214040    6.91341140735095    5.35308809514770
H         6.54168506934094    6.52748787158367    5.75669979770060
H         5.05368371644496    7.39121587828302    6.15802198008927
H         5.84236802856522    7.67177767058089    4.61094520453379
C         3.50406765076424    6.32469483085655    4.07483897213536
H         3.75021142641115    6.99449759500583    3.25374143174202
H         2.88676133374104    6.85765664086691    4.79459924541698
H         2.92397534856970    5.48445735964312    3.67083057549112
C         2.67551723454285    1.24282954931140    6.93557268157588
C         2.24600824378383    0.05861825720221    6.31799671107059
C         1.25191407543109   -0.68328466182653    6.94086257526111
H         0.90861875096443   -1.59968429075068    6.48814603573712
C         0.69759489615090   -0.27075508126102    8.13677252444467
H        -0.07566607894966   -0.86071206686891    8.60572212321084
C         1.13483085785676    0.89348560440657    8.73435002594819
H         0.69771809759177    1.20234364123145    9.67023329016687
C         2.12644915344949    1.67102607162691    8.14947079304091
C         2.86215105295786   -0.44864843856388    5.03300568253222
H         3.37495135038517    0.38225678870437    4.54052938144959
C         3.87612985735125   -1.55644283360629    5.34092848607093
H         3.38368344863598   -2.39486086544785    5.82845821338360
H         4.66595180854948   -1.20172716812365    5.99928949128423
H         4.33089170487331   -1.91197343709374    4.41917141720981
C         1.81154374865384   -0.97101796891921    4.05150095207328
H         1.40369719903807   -1.92507675068662    4.37530465485729
H         2.26465932282591   -1.11374826887409    3.07336730693983
H         0.99950902823611   -0.25793175709858    3.95646787464907
C         2.60993784324499    2.91400552648933    8.86103791447168
H         3.26562112421070    3.47161731188566    8.18765891305099
C         3.38435921229856    2.51224383431402   10.12336509571537
H         2.70834394690468    2.07641142794145   10.85506887181282
H         3.85401465269686    3.38515793424718   10.57163655030626
H         4.15570684187264    1.77544998221757    9.90428919710695
C         1.46314753355433    3.85434225599754    9.23821754639479
H         0.95650332640623    4.20818924780349    8.34478706605590
H         1.86251536924935    4.71769213164325    9.76688922663252
H         0.73585068839571    3.36704279277726    9.88143050123581
C         0.77179431222280    3.73372296024390    1.25671274341497
H        -0.02185522139272    3.14651477867738    1.69417800979698
C         2.08681566151828    3.53944392695823    1.69443334273621
C         3.09670347921913    4.30072066440545    1.09444729978591
H         4.11933080357298    4.15106413009856    1.40472486794738
C         2.79965834616117    5.23680046164829    0.12409988671982
H         3.59523619387773    5.81782246036498   -0.32089572406282
C         1.48887452167547    5.43170567402257   -0.28076106392981
H         1.25593459517195    6.16774915989825   -1.03649327533805
C         0.47875851188790    4.67146600110181    0.28734198149775
H        -0.54400964689076    4.81281890061815   -0.03134326834581
C         2.41019625902518    2.52892340056389    2.72143836470974
H         3.38994486405004    2.09046141828633    2.52319651889886
H         1.64444119483654    1.74075896562708    2.75252606289015

