44
CSD_code = SOFHAX | q = 0 | S = 0 | Stoichiometry = C11H18CdN6O8 | MND = 6
C        -3.26355302555065    4.05077533817242   10.05816895330163
H        -3.14841352568316    5.13107503126184   10.23083720212585
H        -2.33096220253096    3.55556735100927   10.33996228776990
C        -4.41933551789085    3.54779278751933   10.93365612653494
H        -4.21605334351790    3.86555832695792   11.96282160262136
H        -5.33562882812652    4.03746857803604   10.59310198084858
C        -3.64422000070021    1.33197799717333   11.61483905495757
H        -2.65587171904589    1.77738582971883   11.46776390244492
H        -3.57965863402590    0.33545019963170   11.16842350590460
C        -3.86954062413249    1.17722563519209   13.10431884881259
C        -4.70756934287994    1.99939938610762   13.85475150520097
H        -5.22303310354721    2.82212107696732   13.38843489234336
C        -4.90875788775627    1.80486865856948   15.21121494977201
H        -5.56422745310074    2.47345731431279   15.74830498138662
C        -4.27959586270990    0.76706841925942   15.87628378934797
H        -4.43724353766342    0.61128948376431   16.93127454165716
C        -3.43524018699515   -0.06112640485567   15.16656500690614
H        -2.91543076149613   -0.87594972606236   15.64743352459513
C        -3.22608321687931    0.14608581250607   13.80730342080560
C        -6.21447533298141    0.27813766384253   10.29900581263927
H        -5.53446872976916   -0.46695331073799   10.71719904346257
H        -7.24458803632231   -0.03751856248570   10.52069580358399
C        -5.98343656788940    1.64171250298858   10.96104500643334
H        -6.62976830442879    2.36648166039978   10.45845792613646
H        -6.29526461311134    1.56281813043924   12.01029174445652
N        -3.52736025889286    3.73535341454928    8.66097360913868
H        -4.27257574609624    4.32263043532915    8.29098362819500
H        -2.69195565388950    3.88354734039424    8.09950766592349
N        -4.60098349536890    2.09966042214008   10.81826525078762
N        -2.28169660703315   -0.75162797412276   13.17962047437810
N        -5.96232078183516    0.37605276756095    8.86752711318788
H        -6.72871356206533    0.86001756791525    8.40312236348424
H        -5.86664942748143   -0.54811182009166    8.45309614096154
N        -2.06524377326955    0.11037008693146    8.60849019165644
N        -4.97544751095891    2.05263931847024    6.14404021642336
O        -1.65534547946729   -0.34538561100285   12.22528042632063
O        -2.16200381372488   -1.85198053191919   13.67061716512023
O        -3.18722920684256   -0.36441986089200    8.87330044087176
O        -1.94549262524243    1.34820784363728    8.66621390358313
O        -1.14001640466396   -0.59343838437218    8.34356450332988
O        -4.00050986672293    1.32046668334888    6.40460314948417
O        -5.58223791339339    2.56626781195322    7.10160572027433
O        -5.31838548165730    2.25355271444452    5.01310364187943
Cd       -4.04531203266402    1.53412859603905    8.48452898094960

