55
CSD_code = SOFJUU | q = 1 | S = 0 | Stoichiometry = C22H30CuNP(1+) | MND = 3
Cu        3.06914471003194    2.48670105870615    3.78945100604582
P         1.43134546659443    3.98922207137246    3.36871978507078
N         4.15993819796972    1.46396123870513    4.91212124942461
C         4.83051380561396    0.70838802321418    5.45944579499920
C         5.65255503451427   -0.20774591970535    6.15934938866247
H         5.22157989653405   -1.20783835693069    6.10033772836525
H         5.72676026133031    0.08935363666632    7.20624811792424
H         6.65015634777624   -0.21949163194736    5.71882230804664
C         0.71817211218536    3.86034111181031    1.68953010323629
C         1.02036574901724    2.74570835725699    0.89326791331544
C         0.39115565511352    2.59549282971737   -0.33928748729464
H         0.62658100554955    1.73078357515081   -0.94210851362551
C        -0.50385354675439    3.54140938647437   -0.80223695181607
H        -0.97654139847504    3.41211527707620   -1.76322635036705
C        -0.78594073653510    4.65515038817655   -0.02879566658153
H        -1.47809452340841    5.40301919978285   -0.38399751603631
C        -0.18689890889736    4.80498077058310    1.20776889089471
H        -0.42699659052055    5.67011440976571    1.80422313561353
C         1.99571880213665    1.71333150582352    1.29825017174009
C         1.59900260459671    0.39117701914632    1.46256218564350
H         0.56151149559170    0.12689406536113    1.32151189761761
C         2.52288809185645   -0.58421470994413    1.79952300160763
H         2.20011726728337   -1.60731746849677    1.91712712489029
C         3.85717893361608   -0.25544993925630    1.96780561784124
H         4.57724595149084   -1.02169003329707    2.21203169587136
C         4.27296447713080    1.05608342640899    1.79122376194411
H         5.32031846875300    1.30983007111898    1.86931621192095
C         3.34716975315515    2.04194804722355    1.46349263442128
H         3.68165801583971    3.04222901517961    1.21956638861854
C         2.05589822821576    5.76926758604149    3.57032818160934
C         2.75399453193625    6.11446407889113    2.25213798217641
H         2.04217914184767    6.23491153502156    1.43883724112124
H         3.46297432929040    5.33204054592425    1.97879606176316
H         3.30750311115405    7.04509176834205    2.35980570226019
C         3.11205160697923    5.69833349709643    4.68004127649618
H         3.60773329884904    6.66165282801526    4.78115178489041
H         3.87020196240153    4.94842093331967    4.44578217629954
H         2.66649691740491    5.44666421196310    5.63928097509463
C         1.03768957584761    6.84645787932459    3.92942293541471
H         0.56833089907737    6.64827864707283    4.88927274349713
H         0.26757488317538    6.96121061063374    3.17285811237969
H         1.55698315539436    7.80069834531742    4.00887348945039
C        -0.04957983652439    3.57039506253093    4.46656247750962
C         0.38504132178751    3.75018714891699    5.92064001915065
H         0.46156467214185    4.80116211142053    6.18728201907395
H         1.35034370276883    3.27047025022084    6.09331289726039
H        -0.34546169547969    3.29187895019202    6.58447845905828
C        -0.28695847818591    2.08042616949953    4.19262457431175
H         0.62216419327124    1.50076072820395    4.36941052772099
H        -0.60506867923687    1.92025856789613    3.16363680011706
H        -1.06598758080874    1.70029355801391    4.85004511330126
C        -1.33678554749344    4.33649438498666    4.18526151968366
H        -2.10884797262848    3.98346268878656    4.86716661891226
H        -1.68553277763265    4.15978600405899    3.17063652442117
H        -1.22231936301157    5.40424548221221    4.34081015883390

