63
CSD_code = SOFKAB | q = 1 | S = 0 | Stoichiometry = C26H34CuNP(1+) | MND = 3
Cu       -2.87380773156898    1.44163360390977   13.26928802616775
P        -4.73159809405093    2.26339134998556   14.23970925769756
N        -1.86593222945099    0.07397191007618   12.17603607169624
H        -1.77155603869373    0.36953242320131   11.20495268017518
H        -0.93586603530146   -0.00686282305886   12.59201131614929
C        -2.56752484186915   -1.18155430711200   12.25370648323185
C        -3.37924731609539   -1.59642264391621   11.20873646161808
H        -3.45550701789083   -0.99721309321502   10.31273492195409
C        -4.09232475136841   -2.77808148495632   11.31987279415488
H        -4.72066370418500   -3.09844646052233   10.50401545942027
C        -3.99375598873147   -3.54559802308387   12.46748444506970
H        -4.54671225308270   -4.46752106867957   12.54966337435073
C        -3.17743887910907   -3.13149957714056   13.50739624168081
H        -3.09189375325106   -3.72949181578981   14.40105590225972
C        -2.46338884481380   -1.95156887221238   13.40404988806608
H        -1.82497191179466   -1.62195104280560   14.21171013717411
C        -4.37281316180106    2.88087839872816   15.92366323035233
C        -3.09636802661166    2.68120785664197   16.47158582152989
C        -2.84605471005948    3.07545244342224   17.78335054918643
H        -1.86026609604387    2.91696840365953   18.19536828766787
C        -3.82804355088002    3.67435676674705   18.54935366456717
H        -3.61142161834392    3.98170471187536   19.56035372979665
C        -5.08957227081534    3.86831159168039   18.01300438754492
H        -5.86756829797952    4.32637667126448   18.60406787151585
C        -5.35863874832132    3.46542340289664   16.71826679908625
H        -6.35136045456945    3.60587209204577   16.32632430493377
C        -1.97284203833114    2.05565466729291   15.74203437797272
C        -1.42972521853534    0.86038323062214   16.20632614428542
H        -1.88292625499890    0.36881312083973   17.05442729362965
C        -0.31117558625891    0.31197333635430   15.60218945915343
H         0.10834494297786   -0.60647465574373   15.98469275193823
C         0.28973138109755    0.95333667004427   14.52970988006537
H         1.18218417870469    0.53999722014739   14.08310451205265
C        -0.23538174266667    2.14836521424407   14.05938875216682
H         0.25216168607122    2.67477743047294   13.25183437138332
C        -1.36937100048103    2.69494339197287   14.65153676857925
H        -1.71478858894043    3.67529167120105   14.35453887271245
C        -5.44640015769387    3.72861042662555   13.27718123220207
C        -6.55695971088194    4.54984965141562   13.92370990407851
H        -6.92227610247333    5.26883249164883   13.19143623228825
H        -6.18794408552550    5.11211473310340   14.77711862753436
H        -7.40018712977291    3.93765042876595   14.22976181029027
C        -5.91584213041617    3.18920594848392   11.92529698822813
H        -6.88713746189519    2.70922506943363   12.01079710075743
H        -5.19931617031044    2.47041528801947   11.52397840597302
H        -6.01112214899690    4.00700312865090   11.21368323087782
C        -4.22574052769969    4.63145185511892   13.06380372863296
H        -3.44001720652472    4.09736793799792   12.52585492502726
H        -3.83052076271107    4.97883587620793   14.01841563030307
H        -4.50500796351018    5.50455289963215   12.47796398043428
C        -5.94387268090352    0.83822584861475   14.54044179214001
C        -5.21082453317552   -0.04631667334490   15.55496919463595
H        -5.74116359037033   -0.98794355695834   15.67860814221930
H        -5.14562242268425    0.43692481684639   16.52797217696926
H        -4.20042595268158   -0.27144202077211   15.20589058434772
C        -6.07845450023597    0.06181161887499   13.22855677445599
H        -5.10110987177499   -0.10625601255691   12.77393846637331
H        -6.71091367970496    0.58134597136909   12.51553850095513
H        -6.52628539115293   -0.91060637091903   13.42301796758308
C        -7.32592467430148    1.20506307709602   15.06529848241950
H        -7.90382072617614    0.29154895555084   15.19726017719167
H        -7.86475057575309    1.83531928176212   14.36247425054722
H        -7.27197527455733    1.70047761813193   16.03038640247358

