82
CSD_code = SOFNAC | q = 0 | S = 0 | Stoichiometry = C38H37ClN3OPPd | MND = 4
Pd        2.94076669337656    7.23635456936700    3.06224528636440
Cl        2.10623005302460    5.07897577417109    2.52515713466033
P         0.82636682430372    7.90985678652066    3.26553214070404
O        -2.14375212396992    9.58300272357069    0.79895045661894
N        -0.15533390222034    8.56920478189291    0.37447901760057
N         1.58936202846918    9.64143525334082   -0.75907949262656
N         4.94603973846372    6.60742409303844    2.87707415069225
C        -0.40724125731836    7.01723706850265    2.25889500706756
C        -0.95935388796623    5.84384881407367    2.76970986347654
C        -1.80539885939974    5.07459331339666    1.99779899639974
C        -2.10473258663877    5.45614031876018    0.70206283214204
C        -1.55780258654217    6.60760204540048    0.15562106417233
C        -0.69582218091575    7.37438478724121    0.94221217910161
C        -1.02624007229049    9.66327437565061    0.32627748046682
C        -0.46416359107725   10.84060198203472   -0.31580587989768
C         0.84463770305692   10.78603464502786   -0.82365844902235
C         1.09351276837802    8.59929305608371   -0.19427179311016
C         1.39103655512414   11.92740188050965   -1.42201668124963
C         0.30092823139739    7.52551051847821    4.96709335839277
C         1.28987394319550    7.06513392834411    5.83457066344202
C         0.97547703726745    6.73504051331897    7.14063795722498
C        -0.32915557114125    6.85698979528612    7.58985319208354
C        -1.32217986507179    7.28715580143797    6.72435587553686
C        -1.01440099934565    7.61358922646614    5.41611515123704
C         0.48256980492102    9.68460095473673    2.98887986821621
C         1.49059231749415   10.43533412004380    2.38850744479113
C         1.32269205562325   11.78937769860860    2.17393928171406
C         0.14088633565356   12.40593027826631    2.55098810003646
C        -0.87091804629704   11.66178603540693    3.13331427386660
C        -0.70550556867743   10.30568525565871    3.35253671721723
C         3.81721802825653    8.83659890935461    3.91542699485095
C         3.30121950088136    9.73309943727997    4.84331125431990
C         4.12295676586609   10.64685418754741    5.48693996166278
C         5.48110615900654   10.67231954546606    5.22588539789639
C         6.02171182040769    9.76838637441414    4.32755962131946
C         5.19826089468258    8.85648711444721    3.68706387243216
C         5.72137217135152    7.85356433099518    2.68698947562721
C         5.26978394747711    5.99685123243575    4.16897837024470
C         5.21253605451626    5.62744128208802    1.82598375705525
C        -1.88264976201142    7.02480150744732   -1.24622260723283
C        -1.20777757834993   12.01728693196921   -0.41780900807624
C         0.64750079989529   13.08101612801944   -1.50648338238080
C        -0.65452003289670   13.12962876260327   -1.00769712849386
C         1.91486518883532    7.35900235098732   -0.16225692445803
C         5.51312944336817    8.44618016887552    1.28883103850535
H        -0.70601534037140    5.52758468993416    3.77047859486656
H        -2.22560704876865    4.16715575868252    2.40435555495176
H        -2.76571982182720    4.84990972085687    0.10025177654755
H         2.39706235118634   11.87323955637359   -1.80700335458006
H         2.31616007489245    6.94935797510870    5.46669034448895
H         1.74571780662364    6.37620773646153    7.80747037891627
H        -0.57648118424352    6.60083735969386    8.60942621467211
H        -2.34393673900138    7.35883243213813    7.06744819860949
H        -1.80317035087819    7.90371169303173    4.73717062927521
H         2.41417103143422    9.94437287336224    2.09534206157274
H         2.11081282096512   12.36210613041350    1.70862757129499
H         0.00688541769904   13.46433845571653    2.38399233447950
H        -1.79860696537027   12.13658908339022    3.41568118287065
H        -1.50905677340553    9.73860820284436    3.79358462928080
H         2.23952414050756    9.73983990462306    5.07037232481837
H         3.69645652668492   11.34015107991718    6.19808875500754
H         6.11972140029711   11.38574040475440    5.72596360599977
H         7.08523667118241    9.76709283174652    4.12812888438513
H         6.79509049482542    7.64938345014217    2.84006491322199
H         5.17420469070876    6.73084355708510    4.97415637182740
H         6.29927817444767    5.61051865322395    4.17233107070610
H         4.58277441228726    5.16520370468319    4.35364308603104
H         4.85138855239827    5.98640857655078    0.86255193276392
H         4.67749905400364    4.70548053675617    2.05493707502738
H         6.28771062035638    5.41213856882507    1.75859588646983
H        -2.39957229173495    6.22610287075123   -1.77144324674762
H        -0.98242136436334    7.28652499926098   -1.80204816246287
H        -2.53060728496915    7.90135581531631   -1.22633684643870
H        -2.21128871773269   12.02342394604156   -0.01980747791924
H         1.07302296786601   13.96129677732630   -1.96643306931801
H        -1.22481022548607   14.04310890154406   -1.08617258729020
H         1.31741828889745    6.47464071516891   -0.37546645820191
H         2.35424220912131    7.21530303155299    0.84875281237259
H         2.71971524453573    7.45474355191402   -0.88673931485985
H         6.00686955359859    7.86363803451000    0.51502623252715
H         5.92430750424529    9.45344639032712    1.27075603071368
H         4.43933970718683    8.51214337144098    1.07358617347471

