52
CSD_code = SOFYAO | q = 0 | S = 0 | Stoichiometry = C23H20Cl4N2NiO2 | MND = 4
Ni        4.60539294395303    5.24667396138644    9.28869367322745
Cl        0.50239389803724    3.82322287089476    7.62381800049007
Cl       -2.06089373432648    7.74341360056245   10.26206439982012
Cl        4.66184215165325    1.33610580108541    6.76136096057263
Cl        9.63730875260926    2.35412369423697    4.99618679869378
O         2.81321743102717    4.78081174374979    9.06166934683394
O         4.98695038345058    3.82966015335754    8.17942135380248
N         4.13299623129207    6.40453358194205   10.72861520595497
N         6.33040106472521    6.00960917254098    9.01041480208686
C         5.14681250561909    6.58364750246384   11.74909164538171
H         4.77175018324914    7.26440891646045   12.52605104837428
C         5.47238721858680    5.21637675122261   12.38054206109325
H         5.42620450529726    4.45484193523884   11.58540675942992
H         4.76619113175811    4.94752843781923   13.16379248168408
C         6.90229433244530    5.37575577804933   12.87145240686745
H         6.92026077209445    5.98216874442102   13.77871902697159
H         7.38244739791871    4.42252606451697   13.08222833851918
C         7.56347521706500    6.12136638745350   11.71684545888816
H         7.79793576845590    5.40750797199761   10.92552194909804
H         8.48253791262326    6.61986279854630   12.01810402038877
C         6.50018721304831    7.12277936316629   11.22107291088656
C         6.52938546150963    7.27763501502129    9.68571914006697
H         5.68906609948996    7.92730506069347    9.40056081879540
C         7.82121070397005    8.07486129228718    9.47564651788902
H         7.87538342187417    8.52935735789753    8.48740012261341
H         8.69386054653178    7.43826688170746    9.62133311655376
C         7.75792575624058    9.12813240963196   10.59306324248279
H         7.36762658163174   10.06990279376534   10.20849827624103
H         8.75082194821843    9.32427182795310   10.99531518417685
C         6.81268359379018    8.55613289610624   11.66925578850077
H         7.25994577923051    8.57448667813284   12.66175112653115
H         5.89293184731008    9.14159186820516   11.70626728422019
C         2.94764823617161    6.85323868561772   10.98579255256658
H         2.81527365460565    7.49150937181841   11.86273967633302
C         1.76039319593955    6.54814862582342   10.27080348437570
C         1.77720580515512    5.46142048882962    9.34088691885300
C         0.52027821949888    5.13092613550163    8.74107219795474
C        -0.62755571837579    5.82488377994001    9.01509114286994
H        -1.55250261823742    5.55372184805204    8.53181212872889
C        -0.59653123505122    6.88642432842771    9.92885693781133
C         0.56813218173124    7.23897732417051   10.55503504162004
H         0.58383829187169    8.05431033560505   11.26171030045171
C         7.23652896200786    5.56676238075184    8.19950267844731
H         8.13050865993303    6.16410604319397    8.03489333800187
C         7.19556464367506    4.35368973135963    7.46183509786072
C         6.02436566451515    3.53801488532647    7.50580247077475
C         6.05790591247374    2.34020830488275    6.72422825614984
C         7.14837064078969    1.98653590833010    5.97555999922580
H         7.13846516372927    1.07380055844604    5.40159664739751
C         8.27498977864766    2.81886735461949    5.95453271843925
C         8.30289437958479    3.98121915297202    6.67628347453545
H         9.17529116095449    4.61606544381763    6.65358167046609

