86
CSD_code = SOFZIZ | q = 0 | S = 0 | Stoichiometry = C37H44FeN4 | MND = 6
C         0.73816210993039   12.06364008446097    4.90643948528862
H         0.61428005844031   11.61542195927568    3.93326342756253
C        -0.34772567915495   12.24098734497660    5.72780815839109
H        -1.32759706784295   11.93355018165201    5.40001803121601
C        -0.16068653815375   12.82144922479856    6.98823578082663
H        -0.99437864306046   12.96109274371847    7.65925074143484
C         1.10664407254401   13.20804040504553    7.34242224311460
H         1.29930278145348   13.65951589963792    8.30277626568512
C         2.17003849400989   13.02158720208238    6.44457818517559
C         3.50980930126719   13.43965067625332    6.67130650516495
C         3.91026852742039   14.14028725259499    7.93800486100463
H         3.79744545114565   13.47799114251273    8.79612253241697
H         3.28055701062978   15.01463254821361    8.10004716169330
H         4.94686123358887   14.46323805444267    7.87985501790782
C         5.68744293627210   13.51656243987049    5.77877951685340
C         6.55627414900727   12.71235811842164    6.52867256147888
C         7.91469215812151   12.99337964347367    6.52904687101371
H         8.57467740578082   12.35878211971822    7.10477064494857
C         8.44152157363481   14.05919354495033    5.81898937962572
C         7.56535584132226   14.86599528229686    5.10650926696355
H         7.95317642946074   15.71327651870790    4.55810205292609
C         6.20525499270575   14.61574344239454    5.07810356857443
C         6.05076864446107   11.55322968768715    7.33587453927369
H         6.71968420319737   10.70017820023230    7.23761331249905
H         5.05588828265760   11.26281439742795    7.01505862967421
H         6.00848497899749   11.82212242569035    8.39213273916381
C         5.28335476287318   15.52791054478359    4.33048719893048
H         5.84197759098722   16.16808216893288    3.65193989501420
H         4.73112394454541   16.15986654061673    5.02706756264282
H         4.56146481817209   14.94377668009483    3.76434721896408
C         9.91625680210332   14.32793840111727    5.80217836223768
H        10.40342946820944   13.88117772108989    6.66572991457577
H        10.11486291447835   15.39771668862990    5.79915564424319
H        10.36292745891620   13.90265583234676    4.90254153006133
C         6.24722267262489   12.06720444579140    3.28383913596806
H         6.35455613516690   11.50515117769616    4.19691882429276
C         7.34751846861542   12.32784360565889    2.50661691731291
H         8.31974682076677   11.97895699712187    2.81520265103464
C         7.18442479199089   13.04344452926947    1.31370385988334
H         8.02937007030149   13.25236950279337    0.67578390604686
C         5.92305929628191   13.46722347987259    0.98323193709825
H         5.74739241265039   14.01915512587414    0.07359680446899
C         4.84244715529815   13.19071449131006    1.83668234244202
C         3.51284183613950   13.64631439137358    1.62426778540738
C         3.15976872780352   14.50359271212712    0.44207221552652
H         2.11860758622136   14.81245322699450    0.49773151745583
H         3.31574420220874   13.95880795393976   -0.48867124291132
H         3.78704642997447   15.39463302493143    0.42178115005993
C         1.31246284726520   13.65762866194850    2.46490448625896
C         0.45983337207153   12.92539422894969    1.62580734379126
C        -0.89497984074654   13.21132039683720    1.61618917331130
H        -1.54582775693050   12.63526679565317    0.97265686489331
C        -1.43550841339147   14.21506337000354    2.40695647498324
C        -0.57623383530034   14.94952219561554    3.20880140019510
H        -0.97307803487474   15.74677411010631    3.82212835556420
C         0.78428876778321   14.69146380352845    3.24808254285964
C         1.00961137526684   11.84491173680350    0.74612001363419
H         0.24774342130366   11.09830007845631    0.53436410577360
H         1.86227354836091   11.36279772103698    1.21945058017104
H         1.34144103526471   12.26223852410141   -0.20520044719445
C        -2.91104013639940   14.48139179685527    2.39803316494400
H        -3.13451132953601   15.44686498763279    2.84535382690011
H        -3.43465175061521   13.71252235060067    2.96722612371968
H        -3.30040310300003   14.46582591247751    1.38163915444103
C         1.68822702937154   15.53037467101891    4.09715237925518
H         1.11606306200860   16.08487273153581    4.83719447729192
H         2.23395327268503   16.24313031702279    3.47743998381639
H         2.41576579091294   14.89890254884678    4.60200750781481
C         3.93452575324691   10.26202847688691    4.74453907373564
H         4.96365480691829    9.96689056352643    4.61079864474363
H         3.58416232622018   10.20578911959071    5.76774891797309
C         3.01505786527807   10.04531663800459    3.73357384996901
H         1.97330207118994    9.95780684888285    4.02079846195439
C         3.29871174413349    9.43328248119015    2.44575358289677
C         2.30434660219719    8.92132759017707    1.71104586249378
H         1.27667478047970    8.98014177754983    2.02788978978099
H         2.48389336500743    8.42609351737704    0.77196741795550
C         4.72018090964359    9.28924419485000    1.98602993018853
H         5.29121853628138    8.70254233811176    2.70398779623339
H         4.75919716262415    8.78553270244843    1.02306928882484
H         5.19734989640189   10.26036880751585    1.89198943563296
Fe        3.49166131521880   12.26842744874160    4.10029507850098
N         1.98786810325438   12.42663049944098    5.22230389164882
N         4.32538050693384   13.19867086133963    5.66975627593517
N         5.00014947694280   12.46918286585301    2.99467690366465
N         2.66608838235600   13.30774654659671    2.56758167480905

