91
CSD_code = SOFZIX | q = 0 | S = 0 | Stoichiometry = C44H38N4NiO2S2 | MND = 4
Ni        0.87861385448692    9.36198488452174   12.73094778555186
S        -0.54855133584500    8.44860338508305   14.06259232316930
S         1.21610221745184    7.47735252373197   11.73953033970267
N        -2.26677181516602    9.16838215318166   15.91562188237419
O         0.58561011427212   11.04467343667674   13.51437213021840
N        -1.03653855454276   10.90628534499743   15.16360048967955
N         3.07647802748749    8.69586690299877   10.14686165959508
O         2.18692376351319   10.19867102843975   11.66737747090546
C        -2.92972022820525   10.08124317655517   16.83172077041427
H        -3.98838704875546    9.80889402056775   16.87155479408905
H        -2.82882704140064   11.08531721798001   16.41428887905797
C        -1.29982883472599    9.61069691402789   15.09671315807962
N         2.46003735566135    6.59333875167962    9.60438073938776
C         4.00201655880734   10.86719225709932   10.34376194492417
C        -0.00844966211610   12.98525277350969   14.68569368923367
C         2.72492690380770    3.13359535517826    9.35463335511805
H         2.32186019507727    3.10899398909940    8.35151741965168
C         2.46210727639560    4.22240428674061   10.17421428904480
C         1.65401523941575    5.39252154909471    9.67366338395162
H         1.27259506764479    5.18456214271734    8.66782466241625
H         0.81086870520136    5.57763769054890   10.34234524803822
C         3.44417237909814    6.60429233795400    8.53585046601564
H         3.95493615662242    5.63651443249409    8.53898175905586
H         4.16062438053709    7.39547147933265    8.76297309232731
C         0.29694790645903   15.70217982819048   15.15220219258847
H         0.41439451751274   16.76046442772918   15.33497620230566
C        -2.62813591004543    7.77416959580938   16.05100181383596
H        -2.23292226790136    7.23077704109013   15.18905848921026
H        -3.72076938501503    7.70057968071115   16.03832392397215
C         3.00605466091487    9.85718841191801   10.78066347591233
C        -0.14316897682442   11.53277675569030   14.41059762446134
C        -1.00532578523072   10.39735217630211   18.40981703499638
H        -0.42211539929300   10.73427157035520   17.56639320735979
C         5.66961732961789   11.65597985673004    8.80739480123807
H         6.25212885257289   11.51962155789207    7.90786480843161
C        -1.08945555991646    6.13309255820031   19.70206272224132
H        -0.70197384854698    5.73656396920173   20.62879232134597
C        -2.43801092095506    6.02821812255819   19.41236898787074
H        -3.10629992318967    5.54612738368027   20.11076017416274
C        -2.33212749073928   10.03300084692172   18.21570812289613
C        -0.73371158754271    7.25597663145779   17.61378831505618
H        -0.06824387401554    7.72770633872398   16.90677843479285
C        -0.60119322488440   13.57236185158114   15.79967499284878
H        -1.17228695595092   12.95950315169581   16.47888532966572
C         0.88889465363236   15.12109495930765   14.04193428917244
H         1.46667475840754   15.72594046898024   13.35833566013344
C         2.79448728214071    6.85281197476781    7.19924896195070
C         2.31601778353675    7.64696202254305   10.41884544685800
C        -0.44516256204660   14.92639805143887   16.02899408660385
H        -0.90310419481668   15.38032952341905   16.89575729323093
C         3.74766714449074    3.18766456966568   11.92370360494739
H         4.14445758674006    3.21008226607397   12.92782813387092
C        -1.18689756740609    9.88922053892040   20.74607880052350
H        -0.74065767630191    9.82706507227105   21.72754674921394
C         0.73979776347015   13.76765719487646   13.80894645543358
H         1.19177216846488   13.29754222840690   12.94827494142135
C        -3.08114926651048    9.60906287545884   19.30359677520717
H        -4.11601554145890    9.32889646738127   19.16663007011079
C        -2.08996913362424    7.17263723536798   17.32555610255517
C         2.16806545004835    6.11168865937614    4.99733477334050
H         2.17267540928265    5.34699636187174    4.23434376895879
C        -0.43573717554645   10.32371767125011   19.66696694463251
H         0.59765596576901   10.60563337808844   19.80569649695129
C         4.17215354100115   12.01774685376745   11.11015797620806
H         3.58075902258234   12.13933994758162   12.00543951114800
C         4.75557455875190   10.69136263180198    9.18716626981829
H         4.61037307699338    9.80309609272850    8.59299911794497
C         1.53734746527011    7.32108120704997    4.76356013332686
H         1.04865800180324    7.50263657349272    3.81776026955369
C         2.16016699693508    8.06568888438111    6.95692723967067
H         2.16286726169445    8.82343592868325    7.72610272676029
C        -0.23763208381507    6.74449277538166   18.79773074945857
H         0.81704270575962    6.82248089050771   19.01609527786221
C        -2.93567355849756    6.54860561106111   18.23070272445959
H        -3.99148571709507    6.46965393579308   18.01185656846468
C         5.83975102850842   12.79717448140530    9.57558562868006
H         6.55695907963790   13.54736548454399    9.27563296773101
C         1.53512250716439    8.29825923023091    5.74576598113491
H         1.04549744655333    9.24401592339381    5.56609615738936
C         4.00520710899839    2.10327314616267   11.10087058998551
H         4.60423157119020    1.27987828741120   11.46085179100874
C         2.79113508178664    5.87776673196468    6.21164358929867
H         3.28511550992808    4.93281539220199    6.39105845114193
C         5.08976878542130   12.97682054600622   10.72700569650200
H         5.22257370358368   13.86617828433782   11.32565635289477
C        -2.51210126705533    9.53742874374457   20.56280453171664
H        -3.10416989091501    9.20099090074605   21.40110004815961
C         2.97998028247931    4.24172112885902   11.46377622809775
H         2.77149401937671    5.08542648696350   12.10390895702539
C         3.49037421323937    2.07633869436833    9.81662569836059
H         3.68662086865980    1.23216389528524    9.17176470401579

