59
CSD_code = SOFZOD | q = 1 | S = 0 | Stoichiometry = C22H28CoN4S4(1+) | MND = 6
Co        1.64158367101714    3.73829092079906    0.28172791974578
S        -0.44525871057644    3.95952470405952   -0.64575092167249
S         1.70418653979613    5.81219029536351   -0.66211518810210
S         1.13137557581697    4.77465122992182    2.24671364459397
S         3.67285934726869    3.90053663564503    1.33558857762365
N         1.29549915856683    1.97785638764066    0.96136121646558
N         2.36481201613137    2.86184050182034   -1.26333196316431
N        -0.71035922701534    6.43835046068004   -1.60507057743042
N         3.37546997885517    5.31590590555114    3.58144058487449
C         0.72688864637660    1.56981023654880    2.08137036515318
H         0.39860813382391    2.33072819147885    2.77580802310553
C         0.53952418594655    0.21935741537470    2.38169439006881
H         0.06806925526616   -0.04778320763461    3.31365445240554
C         0.95480191636126   -0.74538732881986    1.49413700293548
H         0.82467541210391   -1.79546562546621    1.70626396533371
C         1.55421376213903   -0.34131573469666    0.29048318073622
C         2.02239713588866   -1.23853922135296   -0.71317890782646
H         1.91084212165995   -2.29756646323418   -0.53811858401801
C         2.59316048623826   -0.78160497979727   -1.85549366926451
H         2.94772090560559   -1.46929205897998   -2.60781646989962
C         2.74262832745826    0.61442260435886   -2.10107730333170
C         3.32534710390008    1.15517494040808   -3.25839240603236
H         3.69330449431866    0.50069907907479   -4.03355375724225
C         3.41832283281376    2.52225976318433   -3.37417295273589
H         3.86642943306016    2.97801420345865   -4.24230775088892
C         2.92700196081688    3.34296596667220   -2.35727297868223
H         3.00094362733759    4.41813795883936   -2.44417992583992
C         2.28200265351729    1.52299485103809   -1.12744474529999
C         1.69432530353893    1.04407988828260    0.07432398704624
C         0.07114179027928    5.53296977605236   -1.04908930466744
C        -2.10324616108634    6.14679627836649   -1.88918563239093
H        -2.19134894368423    5.08568309933901   -2.13729442901711
H        -2.39878192984798    6.73644113953097   -2.75856995675932
C        -2.99297055913205    6.47275177691870   -0.69412147549095
H        -4.02713282328304    6.24899969554096   -0.93717652191527
H        -2.91790226223242    7.52466906511571   -0.42986486967499
H        -2.70158750776757    5.87498653703412    0.16571936179353
C        -0.21165270956527    7.76303936028787   -1.92303460103318
H         0.56661378282297    8.02421033536141   -1.20090760117094
H        -1.03853873325700    8.46715507388841   -1.81716345767033
C         0.35737248940248    7.82038504647250   -3.33681873117652
H         0.69890364421105    8.82829031983938   -3.55171528424761
H        -0.39716339476299    7.54600103459442   -4.06994548277127
H         1.20069788522710    7.14137073660633   -3.43242939843206
C         2.80764840993354    4.74615145399806    2.53616984568753
C         2.58290445450389    6.02282437383025    4.56975452007099
H         1.70958893682670    6.45310946033644    4.07216664468547
H         3.19259343928792    6.83388569554934    4.97117799271080
C         2.13079628348996    5.09285414899905    5.69077457433742
H         1.56016040667129    5.65537958855670    6.42334619075971
H         2.98552750508030    4.64163073474139    6.18866703969727
H         1.49983956086362    4.30179143824707    5.29385928541958
C         4.81485069029271    5.27643296611293    3.76137473025366
H         5.19005394607696    4.33713488129197    3.34628972275775
H         5.01950938887119    5.29327959679708    4.83319168363816
C         5.49297954086477    6.45384943741055    3.06862794366023
H         6.56593475416947    6.40098848433847    3.22556900733134
H         5.12997450595638    7.39889457311704    3.46510642398992
H         5.29685756178193    6.42510637146489    1.99983257096805

