75
CSD_code = SOFZOF | q = 0 | S = 0 | Stoichiometry = C27H42FeN2OSi2 | MND = 6
C        -4.18245155352423    4.60368050755896   10.34555908652226
H        -4.54141409881381    5.61009040984582   10.44348329592097
C        -5.06774338097365    3.55519918505209   10.29765983880184
H        -6.12886607420983    3.73970520716209   10.35351959719822
C        -4.57279092732694    2.24892554540770   10.17909643896508
H        -5.24700967532471    1.40647120459490   10.14435723998061
C        -3.21628076206267    2.07686135183657   10.10908209260602
H        -2.78635782824748    1.09230917036426   10.01883469918083
C        -2.36989714482656    3.20072195682061   10.15608610062899
C        -0.96317967128536    3.16552768583515   10.07454983848102
C        -0.22901746108923    1.86513582044669    9.92037912386452
H        -0.41098253241353    1.22666383358154   10.78497776848723
H        -0.58056607998223    1.33596667146135    9.03499298335300
H         0.83928351567510    2.03936289890185    9.82844127030508
C         1.01291231869686    4.44580703167078   10.03231275036612
C         1.60528222324467    4.63350591862396    8.76858945641588
C         2.96715880182795    4.88642669774768    8.69423967609654
H         3.42785329205886    5.04539727437955    7.73146248124581
C         3.74980401054572    4.92569575332723    9.83168856432868
H         4.80483484739385    5.14482186514069    9.75878402421291
C         3.18502705887717    4.62458632840663   11.05519456121277
H         3.81598099536646    4.58017056079575   11.92967700587755
C         1.82772691125022    4.36157710202884   11.17683614623395
C         0.81165820376710    4.43866868031441    7.49376453618926
H        -0.24800674019197    4.40608304996639    7.76235057521304
C         1.20479648455310    3.09656574841230    6.86204539110198
H         0.59805040245408    2.90820265724965    5.97886284859031
H         2.25080503951815    3.11211522111543    6.56287261362043
H         1.06396619549177    2.27507150152836    7.55660497907761
C         1.02029265177335    5.53790144677409    6.44919247411899
H         0.37446501415045    5.34927850522559    5.59386985931265
H         0.77841710960633    6.51851022272690    6.84536694157599
H         2.04787037407176    5.55111277947904    6.09394518948234
C         1.28726023946248    3.86250983180956   12.50055863261838
H         0.19892328370593    3.80092323556205   12.41710852797259
C         1.63784204614533    4.74885166043533   13.69832078298110
H         1.22146436884721    4.31161018005085   14.60372933253795
H         2.71468148086420    4.82376061926729   13.82774935806563
H         1.23226754321667    5.74875914648614   13.58917219490727
C         1.84426997939996    2.45709437698038   12.76773055712510
H         1.38421283258351    2.03708736779763   13.65975367806003
H         1.65361879360014    1.78753002132012   11.93510079084755
H         2.91963072661697    2.50046285323918   12.92592284885647
C        -0.48354738477131    7.13161857462470    9.15829570505887
H        -0.40759247334348    8.13203137048453    9.55112045179861
H         0.46462276978164    6.73283611370478    8.84714529550500
C        -1.67434601203218    6.74306074058004    8.56287842463307
H        -1.69054618202713    6.02454925551886    7.75910413445648
C        -3.00793666262954    9.62583480224276    8.96391012903706
H        -2.96316397579507    9.93646368243845    7.92596150077218
H        -3.85313931728192   10.12795621715744    9.42445524257117
H        -2.10869696529586    9.98305956522435    9.45403319881802
C        -4.80204355938614    7.18248710505941    8.29423949531113
H        -4.93365577247475    7.68512089892411    7.34256289910739
H        -4.81728054463573    6.11465703125482    8.10883535975308
H        -5.65785025655287    7.42626779512637    8.91488945375331
C        -4.47766671384216    6.31221618774127   13.10188576133631
H        -4.48468070273040    6.44382803923639   14.17805343982625
H        -5.41436450807398    6.70115023969075   12.71719518419999
H        -4.44956708671952    5.24827790590754   12.89758637124561
C        -2.86933255955982    8.96928219189548   13.06437703088427
H        -2.74253767328532    8.94005433061439   14.14090370005197
H        -2.02859921167627    9.51393688668174   12.64842833045327
H        -3.76768403588101    9.54038240086257   12.85130722727709
C        -1.40009654847368    6.20866527470185   12.36164738465078
H        -1.26722692416584    5.30620754706752   12.93628794640237
C        -0.33101298738223    6.81895651414909   11.71662861050172
H         0.66565076187302    6.41902039661145   11.76361155673583
H        -0.34754669443094    7.89154503104693   11.60629218280144
Fe       -1.50340490028439    5.81853314353260   10.37262362491455
N        -2.85602178463538    4.46887671377558   10.28079556040576
N        -0.38831229853032    4.35322162762198   10.14005424414851
Si       -3.16831922278096    7.72971124631893    9.10216959719606
Si       -2.97980086944995    7.20581529308336   12.34385688236469
O        -3.18609251797482    7.37656679036760   10.71393792149149

