66
CSD_code = SOGHUU | q = 0 | S = 0 | Stoichiometry = C27H36FeN2 | MND = 6
C        10.62719761622754   10.40226139358233    1.89766675120958
C         9.37819942098417   10.05913589853270    1.34890543996409
C         9.28764127768462    9.77248413873804   -0.00189104122820
H         8.33155596775240    9.52948257570825   -0.43760877315171
C        10.41318524486449    9.78862390480963   -0.80704529772963
H        10.33169294434138    9.55050281252932   -1.85718275122544
C        11.63885920861784   10.11464824307394   -0.26319655556525
H        12.51075519222212   10.12842509517000   -0.89951168868925
C        11.77262165311827   10.43235570849767    1.08192706348690
C         8.14673910020399   10.07995127278701    2.22782012393020
H         8.47103620900451    9.92417376508665    3.27337569312518
C         7.48489766221888   11.45854370441364    2.13765710338337
H         6.59158911803747   11.49068077587926    2.75740602975571
H         8.16936267000074   12.23082657768369    2.47970918737189
H         7.20266804364264   11.67706934021658    1.10916890010637
C         7.14619391471013    8.98299220890195    1.87249622174120
H         6.39314754981003    8.90089630008929    2.65308527125748
H         6.63306082906680    9.20326863644067    0.93940376796132
H         7.65142468824723    8.02626075534866    1.77503881926362
C        13.13860936899988   10.79980181872680    1.61962058129084
H        13.04104475063143   11.05043624713944    2.67966877852261
C        13.70757610132913   12.01547052623917    0.87879387347650
H        14.60906991918582   12.36687152977644    1.37685974816949
H        13.96685353436650   11.75524822314730   -0.14431519540919
H        12.99003627932443   12.83080605808699    0.84739994173180
C        14.12392604314753    9.63318854998871    1.50055662310674
H        15.10248473323138    9.94098551498001    1.86297096509993
H        13.79478637118976    8.78270877224729    2.08959567093024
H        14.22778069325098    9.31641368300499    0.46579003397856
C        10.96018618078986   11.82485508815369    3.79200665286819
C        11.08180079919758   13.08581798290426    2.98470423196405
H        12.09403893549642   13.48857549879522    3.02992312794484
H        10.82956415056985   12.89011351317339    1.94452837175022
H        10.40246761449123   13.84510174658143    3.37263645431855
C        10.98003162327675   11.84015578733124    5.20975082890140
C        11.40028434802671   12.94147076063246    5.97984307994753
H        11.73507615848636   13.83937146097609    5.48501507300037
C        11.39910825620541   12.84963046406178    7.34804187175444
H        11.72167535729292   13.67864607894679    7.96110988107160
C        10.97829824635267   11.65238380110117    7.93340650599382
H        10.96652223844089   11.53266866460396    9.00516959204954
C        10.56151473547770   10.62571546831940    7.11145305729194
H        10.21666472691478    9.70288206272316    7.55039119212651
C         9.08673814367181    7.49950204793710    4.53560261508919
H         8.06276378318663    7.81535681777208    4.34085770763754
C         9.50635986205316    6.30678828031045    3.71289792134405
H         9.18005131897353    5.37821268458461    4.19635044057757
H         8.99505155326984    6.36481928586176    2.74965272756770
C        11.02192813663278    6.28439511637794    3.46527116819957
H        11.22264953610845    5.78989305110042    2.51217855228064
H        11.52948187100039    5.70980587209930    4.24070678202559
C        11.57042075533516    7.68750850964168    3.43145123614081
H        11.82722259876784    8.04331153334767    2.44168025402990
C        12.10531216077937    8.32872255102240    4.52319661709461
H        12.82073328425434    9.12925789110065    4.35532843700620
C        12.15089512859487    7.76110837124049    5.92034097446041
H        12.43578744523214    8.57335928315827    6.59099905349059
H        12.92851912517207    6.99177367161515    5.99354764154888
C        10.79844879661205    7.18591029455080    6.38868955756756
H        10.74370577717220    6.11877104572915    6.16431731162092
H        10.73372004094722    7.28439513498356    7.47465264912301
C         9.62995280251389    7.89020848388377    5.73960340337520
H         8.98573204278272    8.45088263699425    6.40804147549794
Fe       10.24414098549400    9.18016887349428    4.22010473363654
N        10.69688813847235   10.63551339178053    3.27680641219801
N        10.53596723651478   10.68533276228567    5.78527712163001

