39
CSD_code = SOGJOO | q = 0 | S = 0 | Stoichiometry = C16H18N4Pt | MND = 4
Pt       18.03640028113224    7.16426807014354    9.33714529986233
N        19.98079883687970    6.72670522838051    9.17048518743832
N        17.94877155808934    6.18598332196161    7.65766946487001
N        16.12809125739750    7.43798313056261    9.07486583199036
N        17.66398266663025    8.15680669218548   11.03307905597018
C        18.23219457744571    8.62177696497990   12.14610296599206
H        19.28512547644667    8.50674117324960   12.33113824650525
C        17.28212107641482    9.23795290705088   12.96336872781584
H        17.46973340681890    9.69542155071654   13.91531216104705
C        16.06484477867206    9.14242461832101   12.30913151957878
H        15.11342062566814    9.50921130627043   12.64357033879285
C        16.31325107596139    8.46747019412233   11.10578228961836
C        15.51015383739486    8.09914751531245   10.00271476434611
H        14.46037875050659    8.37242326748095    9.94618179660717
C        15.69734432673919    7.08339643025986    7.73855727683440
H        15.91433681074917    7.95090937941965    7.09183659606737
C        14.22522919969320    6.71343029766760    7.56240739964008
H        13.58614263696747    7.53017730259356    7.90216871845205
H        13.99566002365427    5.82997519441967    8.16249611896579
C        13.95756142120909    6.43566814064666    6.08312298499863
H        12.91509559933480    6.14231215535430    5.94821827319842
H        14.12134445059432    7.35334203929950    5.51325007238562
C        14.87101316268439    5.33715198529700    5.54234555890650
H        14.68057212264535    5.19614191494900    4.47706295229150
H        14.64181417805734    4.39649853623360    6.04863748521344
C        16.34647600209790    5.67317548046899    5.75964495599821
H        16.96525711723050    4.84876488560914    5.40126072576446
H        16.61830984839366    6.57068935996445    5.19939705412477
C        16.58727097078573    5.90779379666076    7.25030282953700
H        16.26791351173417    5.00412940241191    7.79740108630539
C        19.06730680013137    5.70297088938945    7.21563303427772
H        19.14360275496128    5.08693203179310    6.32429013466636
C        20.20163697914778    6.01897899713637    7.99718289217688
C        21.57122671329684    5.74262606826317    7.88240695837437
H        22.04330013262318    5.20878578676379    7.08009145095129
C        22.17666528973750    6.29031106625673    9.00147025782588
H        23.22079746207134    6.26976571343787    9.24648613909384
C        21.16574111354161    6.88219877548335    9.76171606063532
H        21.26431316646033    7.40255842948241   10.69746533287986

