86
CSD_code = SOGLEF | q = 1 | S = 0 | Stoichiometry = C36H44ClNiP4(1+) | MND = 5
Ni        6.12632449493792    9.97048052182226    4.06028614039109
Cl        4.05259894033355    9.05234211810115    3.70711797667358
P         6.34641891575683   10.44927222226334    6.25437413355538
P         6.87852284440653    7.95378785880752    4.09704176485974
P         7.21913849390556   10.07066147630253    2.08789404329975
P         5.15550026829048   11.89067156871591    3.98857952687796
C         7.26264390519950   12.03169145325238    6.55194457693617
C         7.53663475127402   12.76796626009641    5.24239425456372
C         6.28136373018858   13.26227301853125    4.52665335781712
C         3.70041077132025   12.06329934446615    5.10252776375928
C         4.01513431787681   12.04602288430352    6.59274472988284
C         4.71577604945159   10.77083216400422    7.05244994305017
C         7.14287980344744    9.30109853007589    7.42521678834259
C         8.52339376048843    9.13391270384883    7.33822441080318
C         9.17699070005093    8.22586844806905    8.14880218668375
C         8.45639373557672    7.46111125167202    9.05142642014525
C         7.08408460236508    7.61580604217046    9.13938922899575
C         6.42630914974855    8.52444286780528    8.32921739045180
C         4.41241400678619   12.49777860897056    2.44112628160767
C         4.29601902576802   13.86233752260848    2.19167648172646
C         3.67180254102720   14.30333436500527    1.03959334911459
C         3.14314821455041   13.39480493199948    0.13745573653542
C         3.24200299464432   12.03778378863890    0.38998247406934
C         3.88069813262682   11.59071382295786    1.53238770610127
C         8.73188160071986    7.90534153770338    4.06960061705030
C         9.36537077879507    9.23727093843708    3.67333185393244
C         9.02571564219114    9.69681283266941    2.25718037508693
C         6.64685302695991    8.76843048400763    0.91488807687114
C         6.99853182808615    7.33972746753104    1.31920353516171
C         6.39523879827571    6.91953295398282    2.65317224071246
C         6.41749277629777    6.81341188556980    5.43977917151708
C         5.16818504989199    6.92615237234610    6.03820095440001
C         4.77114184298498    6.02016234791793    7.00489557095374
C         5.62488676571719    5.00280017125319    7.39366119030350
C         6.87094244151887    4.88541200799415    6.80016334879681
C         7.26620395367844    5.77800307627884    5.82112815697169
C         7.21821665637800   11.56960886860901    1.05024015183162
C         6.46045598472566   11.68765669197872   -0.10976152009639
C         6.44563227733291   12.87988035652928   -0.81200322021149
C         7.17249545096868   13.96852239188502   -0.36326979216790
C         7.92427351945640   13.86169949030793    0.79533263762774
C         7.94110154760458   12.67293730356691    1.49901602893214
H         8.21260010365978   11.78330227203030    7.03093590033187
H         6.69756086481555   12.65833379124492    7.24532446167395
H         8.06782685210043   12.08503526347470    4.56727713983473
H         8.19307893584918   13.62040433877022    5.43728814495631
H         5.72738820690177   13.96051601480783    5.15943654386288
H         6.59257275340128   13.78779202032317    3.62044828631169
H         3.01720650993965   11.24841334431725    4.84251243998435
H         3.21949869262986   13.00994064381240    4.83218453121177
H         4.61499544675387   12.92044747969855    6.85681614833969
H         3.07319553236237   12.13233036435889    7.14139966502226
H         4.88836251520608   10.82252196576926    8.13245940786977
H         4.07603621557509    9.91010276514690    6.83424044813294
H         9.09472765716795    9.72700024690944    6.63636998348913
H        10.24866815460682    8.11363438054136    8.07670704929494
H         8.96352127073589    6.74844844368851    9.68285253710882
H         6.51794633693393    7.02320374651157    9.84143963487496
H         5.35529107073848    8.61847761783946    8.40856655943541
H         4.67826695580840   14.58810351147879    2.89380357283553
H         3.58838533309518   15.36312591763302    0.85162921893035
H         2.64812599850893   13.74695455792475   -0.75447203370618
H         2.81909260602286   11.32542521018821   -0.30218510600256
H         3.94973073947095   10.53218783425683    1.73698451565305
H         9.06549792350221    7.10633468813872    3.40244219499753
H         9.05497967455456    7.66615308036327    5.08580007501952
H        10.45095795222852    9.15898442057118    3.77768995955699
H         9.01655325214806   10.00343151349212    4.37748839566575
H         9.57920445192831   10.61166470769657    2.03297105661772
H         9.31633533649422    8.94612184219501    1.51910797059491
H         7.09639723744480    8.98949352129415   -0.05873334788649
H         5.55943734244249    8.86248001931543    0.83520649253629
H         6.62023514077481    6.66530386336907    0.54605184580511
H         8.08359966960667    7.21272191959119    1.34493699109571
H         5.30175874061034    6.94760815527627    2.60872137946447
H         6.69974760667032    5.89537934576501    2.89585325072956
H         4.49903064315298    7.71448952058913    5.72557316519250
H         3.79294811502883    6.10795321468842    7.45303199701730
H         5.31959512820287    4.29629185560359    8.15012652085890
H         7.53645241003837    4.08732949919450    7.09269291026581
H         8.23136424576137    5.65231493081445    5.35382980011787
H         5.87697379922685   10.85737610956440   -0.47364423598660
H         5.85869256024791   12.95755469617055   -1.71424827524456
H         7.15447345870379   14.89662642014995   -0.91287798188372
H         8.49692046358610   14.70580743227238    1.15007989498698
H         8.53134200376182   12.59852056010901    2.40281484711218

