39
CSD_code = SOGMOR | q = 0 | S = 0 | Stoichiometry = C16H18N4Pd | MND = 4
Pd        3.65040030939705    7.51221918626888   -0.71430210384118
N         4.51687839722235    7.09146588417044   -2.45515530340543
N         5.24132325551335    6.69987800433624    0.02754068931773
N         3.10107140232286    7.68118314676127    1.13224795634625
N         1.93701299094066    8.45635719285148   -1.07783890815199
C         4.38737106655310    7.16677148544899   -3.77821787679791
H         3.51580905813503    7.60303434050343   -4.23631858241718
C         5.50487814277249    6.61642671183220   -4.41496424952969
H         5.65762719383266    6.54683536147466   -5.47460687262873
C         6.36174811613849    6.18304905278393   -3.41837027650568
H         7.31809480585082    5.71081944470577   -3.53808461548262
C         5.73611729811810    6.48713852533682   -2.19782050838790
C         6.12144974987998    6.33599646020850   -0.84631795253222
H         7.10521523606698    5.95004240109589   -0.58089639986562
C         5.36050552505358    6.89660245915631    1.45516812028545
H         5.78609896619679    7.90585632920634    1.61036157429809
C         6.21619766045133    5.88957824252872    2.22592568568930
H         7.23266834101057    5.87345792960052    1.82908824293881
H         5.79162390456523    4.88923769482274    2.11380453534438
C         6.24725356329501    6.29232818970793    3.70056432959560
H         6.74516056999611    7.26023208019568    3.79496362323683
H         6.82910531909091    5.56298939056512    4.26670269036228
C         4.84099551138464    6.38967420031251    4.29014911821850
H         4.37853321438403    5.39985953082040    4.28397258554795
H         4.90405191986808    6.72026584420608    5.32828512651435
C         3.96067371882997    7.35610329557927    3.49727925981072
H         2.95450324948045    7.36563272462906    3.91971775094687
H         4.36272825390827    8.37028059244455    3.55375950313877
C         3.91941463063244    6.90414699612289    2.03638350586538
H         3.54312776941179    5.86432717530115    2.00408406150850
C         1.93821937427321    8.21843703406399    1.30475065827019
H         1.45240536379603    8.29603782938569    2.27693359248313
C         1.30847488223301    8.69577542852898    0.13282787597296
C         0.09655083214901    9.36479008527053   -0.10616309069009
H        -0.60787522967118    9.68235765868862    0.63866889163530
C         0.00043872682561    9.52031985392512   -1.47797960552195
H        -0.79700958502722    9.98936846852550   -2.02121189175606
C         1.15052135295735    8.94889867558621   -2.03280690654352
H         1.41913514216033    8.88512509304772   -3.07372423326936

