26
CSD_code = SOGNIL | q = -1 | S = 0 | Stoichiometry = C10H8Br3N2O2Ru(1-) | MND = 6
Ru        0.22679262269940    1.59591256462105   15.34786140021965
Br        1.59273509206364    3.48837809469707   14.36786694501437
Br        1.87681617011071    1.16149798667019   17.14854440397906
Br       -1.44469760816480   -0.05449756989575   16.29481676323841
O         1.45573038195152   -0.35759389999860   13.71153515378409
O        -0.60824657142564    2.96984495406297   16.56243106564775
N         0.93185263911282    0.45342395350666   14.36553512312637
N        -1.40350732629904    2.32317763876517   14.12108803124334
C        -1.76352805738467    1.97634776777602   12.90119203051115
C        -2.88090140082315    2.57638560216763   12.28876444984686
C        -3.60959430998725    3.52851047782594   12.94322309528333
C        -3.90004323743490    4.88097480192685   15.01566874718052
C        -3.44638290269321    5.18208630012197   16.28027275884977
C        -2.33840801576036    4.55624456748656   16.83339402659579
C        -1.63893632321776    3.58547651445789   16.11231544912808
C        -2.10273269145009    3.26364618706408   14.79282406468514
C        -3.23630630394805    3.91521433095991   14.24565396716558
C        -0.97863119671207    0.94033560219945   12.16530921076826
H        -3.14612695324351    2.26455560260895   11.28985150906447
H        -4.46823276066884    3.99126297214311   12.47721699535926
H        -4.76430052706839    5.37815646109394   14.60073177826809
H        -3.96518124990862    5.92888315152285   16.86596146023150
H        -1.99565829945243    4.80419071349268   17.82621216584763
H        -1.39031197212603    0.78456162295090   11.17138492805032
H         0.06140354488201    1.25694012802910   12.06202866569168
H        -1.00840274305194   -0.00961652625483   12.70321581121057

