78
CSD_code = SOGPOU | q = 0 | S = 0 | Stoichiometry = C36H39CoP2 | MND = 7
Co        6.18584707474977    5.05085296249963    1.83614461895199
P         7.72365654459141    4.59475547492245    0.42286617983989
P         7.70753854136419    5.21860650093577    3.32505551301211
C         4.36494584232629    3.91728300399591    1.56239534754691
C         4.51601301328920    5.01810129365813    0.63207383524062
C         4.45895288728755    6.24448239073457    1.35763018738113
C         4.49469081310373    5.90386852141256    2.72556728574220
C         4.38046952532145    4.45743447025036    2.84864888627041
C         4.09638237301274    2.49956117033988    1.15704929594844
C         4.34533470031855    4.88807199241604   -0.85068376206115
C         4.22892029501148    7.61019964952462    0.78391912955073
C         4.31239640658412    6.85430634726013    3.86831699590488
C         4.10207901753900    3.76205064908801    4.14614971875482
C         7.63607884392543    3.13919870493248   -0.66650887317231
C         7.73125220612760    1.86978932662104   -0.10132241631464
C         7.53091609970782    0.74109419965567   -0.87313127663643
C         7.20790962917895    0.86551626996709   -2.21522131627738
C         7.07569884559407    2.12448380106423   -2.77712611251064
C         7.27935388944801    3.25548823874042   -2.00725918256205
C         8.28190507496873    5.91459291822109   -0.70975927070523
C         9.26115556286263    5.71895226169050   -1.67883889725525
C         9.68192982072353    6.78083376263666   -2.45781259505930
C         9.13757555814734    8.04257831745901   -2.27168581056794
C         8.17205294274846    8.24481797812927   -1.29971006607371
C         7.74863636092650    7.18270841789713   -0.52086299828431
C         7.77820021635581    6.52244828768926    4.59150967110130
C         8.11430487076120    7.82120701545377    4.22048387444441
C         8.04701781549046    8.85164357300781    5.13899045294765
C         7.61798659831338    8.60244728668999    6.43296004703843
C         7.24588788546092    7.31999701576181    6.80047631124828
C         7.31675755408297    6.28707242656711    5.88387272408290
C         8.07438383061247    3.71116516720202    4.29143491974796
C         9.04009719887049    3.67315081010639    5.29224873864337
C         9.32080097881964    2.48174927489706    5.93539679758271
C         8.64858259006590    1.32186648059101    5.58154323134056
C         7.69246837803364    1.35298213139786    4.58003032020956
C         7.40829479127926    2.54479899864350    3.93793481406081
C         9.32656401408244    4.33873857769326    1.33661973319456
C         9.34918032411578    5.36431286621830    2.46189738744433
H         3.08028291003140    2.41099547941103    0.76596225791862
H         4.78469523111817    2.17162620647773    0.37814865510744
H         4.19343093372482    1.82370153248283    2.00425598955732
H         3.28613916790361    4.96937815450782   -1.10537290742724
H         4.88293490250979    5.67259174829747   -1.38136174588351
H         4.70660659620298    3.92424694582047   -1.20358711973788
H         4.72156724567585    8.37983997767307    1.37641206159417
H         4.58816445529271    7.67505147479630   -0.24117659459795
H         3.15785277605903    7.82832370512143    0.77815385483341
H         4.77795290790013    7.81621529297167    3.66098766767363
H         3.24649492072092    7.02145794188734    4.04007049225532
H         4.74561450091357    6.45857743937236    4.78469415619770
H         3.09749707259131    4.01570907925630    4.49148330474217
H         4.16255388178499    2.68152608119459    4.03830591962246
H         4.80858963331041    4.06722198141197    4.91745783644140
H         7.95326673445013    1.77041208052971    0.95243486568701
H         7.61663033718556   -0.23951266834438   -0.42714276351789
H         7.04729561957378   -0.01639345211733   -2.81783354445626
H         6.80588128626995    2.22559081897952   -3.81870413470518
H         7.16375858180989    4.23643976322855   -2.44662202835357
H         9.68517211576669    4.73444951557578   -1.82601810665525
H        10.43878054056758    6.62689745323785   -3.21386213525494
H         9.47007485457311    8.86758242838942   -2.88493462962456
H         7.75162090320251    9.22917964095754   -1.15091503256849
H         6.99967454669139    7.31340331227918    0.25087716990806
H         8.42211759474443    8.02184392233643    3.20351170846416
H         8.32159611167835    9.85488025698462    4.84558246047652
H         7.56261650942537    9.40848355018949    7.14984247244857
H         6.89387579450948    7.12593756447267    7.80367651525337
H         7.01943948627355    5.28698162808391    6.17028320738116
H         9.56321788659253    4.57827134509983    5.57115622185000
H        10.06812339129231    2.45467595791340    6.71569541314941
H         8.87271438479678    0.39424513690473    6.08803938132187
H         7.17062522023284    0.44821313356704    4.30216858259157
H         6.66605400057057    2.59614753240289    3.14983310000655
H         9.33390030492162    3.32976153205421    1.75737371616862
H        10.18189016335791    4.44867869457677    0.66379816561695
H         9.43363045091112    6.36978792677603    2.04078241016191
H        10.17794712965521    5.19677134926529    3.15594971660786

