56
CSD_code = SOGQEM | q = 1 | S = 0 | Stoichiometry = C25H23FeN6O(1+) | MND = 6
Fe        0.87276291858192    2.60240821855068   11.38359511268214
N         2.53973199647102    2.64943961789211   10.42513157589139
O        -1.03833321787897    4.28836077475946    8.31407783006813
N         1.46107783371819    1.35016160478733   12.54005480358427
N         0.33936352270550    1.34396337320685    9.93631113160893
N         1.27376684269091    4.09399351366040   12.54786754977071
N         0.21383424653097    3.93950166304097   10.21703994963294
N        -0.97042120552721    2.40709486519037   11.96218530732834
C         1.83308147857769    0.62777151971352   13.35961844018849
C         2.04831505923295    5.29594711950156   14.46431496328489
H         2.52283126816735    5.24154611918363   15.43081534288850
C        -0.39828282384075    3.59437747022753    9.08087143846712
C         0.86640507904603    5.27086698476017   12.00597996667515
C        -0.70915005621735    0.51352101262886   10.52453890641367
H        -1.27304881304916   -0.05004298783496    9.77155321403298
H        -0.24468053999754   -0.19750355018488   11.21495767978336
C         1.84543853855621    4.11877751977813   13.73311353193304
H         2.15945511291740    3.16638560176914   14.13063549082638
C         0.25904073498827    5.21133774458606   10.72348998903339
C        -1.60814165237843    1.41563739452825   11.32416353669262
C        -1.68875394998657    3.23926584011939   12.70788682290958
H        -1.13963634937132    4.01972326476331   13.21014390348308
C         1.63850416899056    6.49408303117746   13.94052884107238
H         1.77676265649935    7.41867681449253   14.47982990781834
C         3.72974254878972    1.57860561522839    8.65276122684870
H         3.79555338200736    0.76005000254632    7.95327697392254
C         4.55562191720676    3.60748196902273    9.58577367498496
H         5.27581618414003    4.40731325112244    9.63639997790150
C         1.02437361038756    6.51482505573315   12.67100247216024
C         2.29819546945287   -0.26737121519446   14.37541536715444
H         3.35475997081249   -0.08582578476899   14.57308605243180
H         2.17137259654570   -1.30217142556851   14.05690229821467
H         1.73279037754872   -0.10890382763900   15.29380916056926
C         4.69644615941293    2.57398192193796    8.67383714776958
H         5.52987930919675    2.54447113403130    7.99052109630949
C        -3.06121656648606    3.13338623716375   12.84872947408462
H        -3.59596285716643    3.83874366933090   13.46312186950903
C        -0.16924445400492    2.10088466558449    8.77739397660260
H         0.55668361889523    2.07289327148605    7.96118503852980
H        -1.10357353974279    1.67824374255970    8.39873624943982
C         2.67028516249807    1.64969624144663    9.53985040286795
C         3.46442644601491    3.60340304046138   10.43675687459659
H         3.31993532440763    4.39232550060605   11.15736663524452
C         0.56384994242197    7.68159343213927   12.03410598400530
H         0.68091344840620    8.63049904238956   12.53348037611416
C        -0.02434980441630    7.60189659331607   10.79617357802965
H        -0.37586404746640    8.50094634986435   10.31347605776461
C         1.56724098553241    0.62691478335402    9.59207436975751
H         1.48279852004809    0.07463866370527    8.64850117295021
H         1.79545811273018   -0.08432620388696   10.39166530263151
C        -0.18281496796433    6.38298754677201   10.13313951639288
H        -0.64860538119700    6.34453722951758    9.16265831698106
C        -3.72460528070943    2.11600607914903   12.18237383269223
H        -4.79464148903323    2.00737664004325   12.25765228655995
C        -2.97823300111174    1.23983526531050   11.40812315834834
H        -3.45435454658093    0.43396698293253   10.87224484256318

