61
CSD_code = SOGQOV | q = 0 | S = 0 | Stoichiometry = C25H28AuO4PS2 | MND = 2
Au        2.59725411864477    0.12678788578619    0.23442758395935
S         0.99309618203088    1.12468920970402    1.67221676589019
S        -0.22217020903357   -0.36702363749647   -0.56875913487672
P         4.22246788339106   -0.79975336802760   -1.04272620412459
O        -1.50607199167902    0.88777196054139    1.36200285040213
O         7.53299142646933    3.23251768099031   -3.89680889433198
O         8.08864309646947   -3.99346621932755    2.15522302644288
O         2.27953233704224   -4.58133401570024   -5.19569408627803
C        -0.36048158833931    0.54520949971874    0.81195096329876
C        -2.74144744920452    0.47979219542243    0.76308812351991
H        -2.59723013095769   -0.51834192462137    0.32613091413422
C        -3.77083718883521    0.42760442135228    1.88274612308828
H        -3.44436429219323   -0.25847379146031    2.66007031627479
H        -4.72564991030818    0.09124509334515    1.48907093334989
H        -3.88994870741895    1.41553474836300    2.31996533061802
C        -3.13402806834904    1.46329839802872   -0.33444111055485
H        -2.37717344574207    1.47147777949158   -1.11541888541311
H        -3.22462357986432    2.46463377254742    0.08026439588971
H        -4.08367593078900    1.16695408980008   -0.77066393099883
C         5.23356392238201    0.39708046949395   -1.94839764232354
C         5.57201130333841    0.26467076924460   -3.29304336954348
H         5.23149239009804   -0.59408477067047   -3.85378270454719
C         6.33988786263418    1.22926328228743   -3.90596726699096
H         6.61421120865081    1.14472413092273   -4.94576301871468
C         6.78278928078219    2.34911512075363   -3.19521667549989
C         6.43351824091662    2.48688817036360   -1.85253537815026
H         6.75162334103975    3.34334516381940   -1.27954145202031
C         5.65994523715732    1.51836507950093   -1.24397234679003
H         5.37671830886605    1.62584572332620   -0.20432907604624
C         7.99609016244425    4.39587846017772   -3.25113820493831
H         8.55919652832729    4.94449189297542   -4.00420459374833
H         8.65548348468856    4.15388843530436   -2.41177731376616
H         7.16636766429169    5.01537024789195   -2.89731201639729
C         5.43226116087308   -1.75233304506920   -0.09086948833218
C         6.80397973355447   -1.71967959614268   -0.33329269151132
H         7.19816783691461   -1.09497459763499   -1.12254459118615
C         7.65586369882789   -2.48065779232835    0.43488472622080
H         8.72085796976305   -2.46912065778685    0.26355265320980
C         7.16097567105407   -3.29005859519300    1.46245833354997
C         5.78907083345083   -3.31920557216754    1.70707468277684
H         5.37699627147103   -3.92873128881707    2.49550258552007
C         4.93987236833381   -2.55041895395536    0.93559244537414
H         3.87443319977925   -2.56141801299054    1.12811946865728
C         7.66436807935251   -4.81873355232165    3.21541348394151
H         8.57040347328777   -5.26969295434859    3.61653917466460
H         6.99199020933372   -5.60799200080763    2.86527764817864
H         7.17014722441715   -4.23938345523352    4.00124133588145
C         3.64622913146339   -1.96514327400952   -2.29825628087465
C         4.43757891297640   -3.01414008408785   -2.76769342829654
H         5.43191481153026   -3.16064290554508   -2.36876309524705
C         3.94865732508991   -3.86210130494146   -3.73416018774076
H         4.54279437801073   -4.67972815273240   -4.11142363715355
C         2.65935075422096   -3.68772679499214   -4.25060881580246
C         1.86862595141192   -2.64456139521408   -3.77472950839054
H         0.86679590796301   -2.48887288296062   -4.14090034078804
C         2.36306752291539   -1.79448083499385   -2.80425600626991
H         1.73906258841135   -0.99848909606978   -2.42263990213282
C         0.98516753191035   -4.47757656454245   -5.74397995126652
H         0.90425257946087   -5.29264076613115   -6.46107861786937
H         0.84493017803397   -3.52388317966989   -6.26181160940929
H         0.21480320925139   -4.59207864310362   -4.97571240653770

