49
CSD_code = SOGREM | q = 0 | S = 0 | Stoichiometry = C24H24Hf | MND = 12
Hf        8.85364674742596    1.91282740848364    7.77716434347622
C        11.38695752921886    1.70185977054991    7.88620486686169
H        12.06964596216345    2.29448850083029    7.29466469687100
C        10.89734309102000    0.42579625727700    7.54225676312302
H        11.15416705265559   -0.11939460393464    6.64539590074528
C        10.21500798029038   -0.09856880430568    8.66110097959695
H         9.83909393394374   -1.10825776957800    8.75595220012959
C        10.32504716676092    0.83704873106422    9.70872510664502
H        10.01755066522958    0.67757484943507   10.73133193296959
C        11.03250202292588    1.95045166784789    9.23091908019849
H        11.36941488523310    2.78616398258955    9.82415026315200
C         6.74508396275256    1.84724062442328    6.15186276867100
H         5.80179493106816    2.34705378861362    6.30636126403162
C         7.05065324435514    0.52738190807011    6.53610893538333
H         6.36500255678416   -0.16709283539261    6.99684543235933
C         8.31840673341265    0.20240690359005    6.01441196012276
H         8.74604516067352   -0.79007336042605    5.98828725006065
C         8.81198056673454    1.33701169560534    5.32795036293073
H         9.68824002253429    1.36044653812324    4.69348509848412
C         7.82481670423625    2.34427222572610    5.40577492338453
H         7.82449658022893    3.27433493369944    4.85689325672222
C         7.46931604700523    1.79214195518815    9.51409664835372
H         7.44041139644799    0.76490707227639    9.90375829322053
H         7.87679290507640    2.44349531194794   10.30226558819647
C         6.08643158702336    2.22385752735652    9.19738477909727
C         5.76454271965212    3.57812291946062    9.05287219865215
H         6.52767318793825    4.32667467925856    9.21729822476390
C         4.48337199415610    3.97760876404498    8.72506395988936
H         4.26169072901145    5.02996697146937    8.61836770935252
C         3.48099447163769    3.03922702357747    8.53836499250963
H         2.48126575320082    3.35259329870927    8.27768985105557
C         3.77167605581292    1.69618929694777    8.70883291814861
H         2.99278632319325    0.95652908450389    8.58981030106272
C         5.05158506166106    1.29662500066946    9.04219788767443
H         5.25533665923297    0.24517698088434    9.19554061750322
C         8.99429561421047    4.12834488937234    7.78564467921596
H         8.21376165143296    4.53446646296461    7.12788712174333
H         8.83001927800325    4.53979359818424    8.79113781553752
C        10.32751599039819    4.57774282111196    7.31113110882043
C        11.26521583253339    5.11836275968861    8.19664899487918
H        10.99677308214353    5.24524716630220    9.23694722454526
C        12.52209141963713    5.50181673110163    7.76913414083146
H        13.22687221805702    5.91252743161900    8.47773874495039
C        12.87658347043954    5.37409087363940    6.43670527992911
H        13.85841721747995    5.67233286233787    6.10132338454223
C        11.95132753226384    4.87173081298091    5.53557881036436
H        12.21120394840985    4.78463495237950    4.48989504692712
C        10.69665209265301    4.48193151467751    5.96341144442022
H         9.98539826164105    4.10678882505349    5.23962484788945

