41
CSD_code = SOGTUE | q = 0 | S = 0 | Stoichiometry = C14H16N6NiO2S2 | MND = 4
C         6.99564326625387    0.55407099905501   18.91381804153843
H         7.76878845964999    0.55815827447402   18.17047306154697
C         5.67777151567872    0.20281894920013   18.85249665368557
H         5.14741087609314   -0.15457004292932   17.99361749173501
C         5.16065190807840    0.40559241841416   20.14571278244259
H         4.15999448560477    0.24478827420599   20.48334658238017
C         6.20919112332698    0.87122108607145   20.91476803055481
C         6.34585053550900    1.27426100947325   22.27713880808460
H         7.32877035783366    1.63246434247128   22.55218334596492
C         3.21495429881471    0.97521025489622   23.57654793564606
C         1.69520955598544   -0.30256532382729   22.13952381538152
H         1.43948465378736    0.34267082427490   21.29256256892558
H         0.85571246470034   -0.96384953464957   22.34760852288671
H         2.56945330455088   -0.89716434100190   21.88038518647665
N         5.41344782569373    1.23766192541316   23.18729831569457
N         4.23000936445219    0.72337497774729   22.80032259853699
N         2.00078606342846    0.46217482961961   23.31963833576205
H         1.24009364335118    0.81550015985482   23.87846815596048
Ni        5.59176490931275    1.95339696542641   24.95479569137477
O         7.32578521132725    0.95797671845114   20.14324344552719
S         3.34955574958368    1.98973313463771   24.97131927817712
C         4.18809966171433    3.35314563921253   30.99571275144972
H         3.41500002273595    3.34907184652641   31.73910610109485
C         5.50593896944274    3.70453737652804   31.05691535993826
H         6.03634488747519    4.06196463081496   31.91575231259914
C         6.02302780415113    3.50155692016514   29.76371848125154
H         7.02367456404453    3.66231969519333   29.42603477333238
C         4.97440596942985    3.03606145806539   28.99469000354775
C         4.83764999983666    2.63307634537897   27.63230519781100
H         3.85473307024511    2.27482171867377   27.35730920355574
C         7.96855894701184    2.93192814182964   26.33286328724276
C         9.48838778433744    4.20970353876066   27.76978701746771
H         9.74402477523343    3.56444208742630   28.61676650918045
H        10.32796649862971    4.87088545523063   27.56167195897644
H         8.61419505039079    4.80440550802160   28.02888805079771
N         5.77003330876234    2.66959263116514   26.72212241287988
N         6.95350581700799    3.18384426223679   27.10906638399472
N         9.18274115869329    3.44495723549201   26.58969746635145
H         9.94339647642241    3.09161939890155   26.03082590803156
O         3.85784663655063    2.94936669963714   29.76627345336915
S         7.83393902486821    1.91737350946189   24.93812471884567

