149
CSD_code = SOGTEQ | q = 0 | S = 0 | Stoichiometry = C75H68AuBN2O2 | MND = 2
Au        6.09581305277018   13.10415225596177    5.01999418151165
O         8.66097971749041   11.51527352036802    5.08690991908724
O         6.87710770547330   10.17753174602099    5.45540876611538
N         4.76754434582666   15.87695886007009    5.78044207024991
N         5.24841158498470   15.79590557763006    3.69858236327512
C         5.11058163684705   15.02556343566656    4.79461346918713
C         4.66540349607140   17.16004841114448    5.30369734754308
H         4.39098164877945   17.98490900929769    5.92649080631378
C         4.97098262094831   17.10872705937226    3.98615029117106
H         5.00774536813846   17.87950921004686    3.24559243881814
C         4.45657954494356   15.43540414421004    7.09201348353249
C         5.44083178474606   15.40125701224962    8.07998998406798
C         5.08737075224022   14.96157256727798    9.34591501947106
H         5.83447248677450   14.93578385156527   10.12447004137975
C         3.79598151177617   14.54224663428650    9.63528794002222
C         2.84074995120725   14.56395727311706    8.63049066748124
H         1.83474105638439   14.23096157616457    8.83979611562190
C         3.15661139418291   15.00364400490284    7.35469801021835
C         6.84823968018682   15.85652371858760    7.76353317560615
H         7.04198047443420   15.61285424549733    6.70977711265028
C         7.02346113028353   17.35316945670965    7.92383714974912
C         5.98678444039744   18.19756986590536    8.29418102938642
H         5.00703559151051   17.79190097823172    8.50324754753653
C         6.19827797826332   19.56151057241359    8.41151929287828
H         5.37976052528340   20.20564541267570    8.69915252821223
C         7.44952538573892   20.09797747477815    8.16856806290383
H         7.61285187299278   21.16150156999390    8.26352135926036
C         8.49378713143685   19.26118938916386    7.80917837879737
H         9.47720987448005   19.66863858543571    7.62438290812078
C         8.28061951370822   17.90131453200570    7.68614431556144
H         9.10066550315770   17.24906224870636    7.41834220637471
C         7.86692181954637   15.09865299219128    8.58730873530894
C         8.40472254385863   13.91376227852897    8.10216971918021
H         8.10265412555614   13.53731035879836    7.13337822892224
C         9.32531172203727   13.20597877173888    8.85411082911191
H         9.74166081268990   12.29113388463540    8.45983591744237
C         9.71770538474569   13.66840767736052   10.09807399459422
H        10.43746346012272   13.11487594713344   10.68317578161268
C         9.18419876836850   14.84829430390413   10.58791519254746
H         9.48557161138152   15.21803223410058   11.55748872191490
C         8.26533256819021   15.55945022619789    9.83702775304483
H         7.86066265443408   16.48597098467059   10.22086138592704
C         3.45587460616499   14.06260697987432   11.01264916913326
H         3.79619823149065   14.77533076601631   11.76191891858909
H         3.95315394666322   13.11319843849700   11.20795252707564
H         2.38411882596144   13.91893077205467   11.12251303059093
C         2.12462756362961   15.07910719688176    6.25064690007651
H         2.61362174032781   14.76660128816422    5.31939619610045
C         1.65984651891983   16.50782593650503    6.07367545478270
C         1.53613172380471   17.37068681580756    7.15637646759439
H         1.77651382422176   17.02112781760915    8.15066825381926
C         1.11068928921093   18.67408141185229    6.96973359073782
H         1.01841722235770   19.33387351439554    7.82049424761344
C         0.80373759769584   19.13337050644308    5.70000109581004
H         0.47376613149090   20.15170459978458    5.55702148120615
C         0.92138688867351   18.27937026772387    4.61705397011735
H         0.68570872127875   18.62248963946899    3.62024248558884
C         1.34604895405667   16.97695849544916    4.80536175403310
H         1.43227949653099   16.31973063092244    3.95321475579447
C         0.98417209809951   14.11240842002897    6.47717576374059
C         1.17397981610496   12.77620689948340    6.14307407959011
H         2.11938848431117   12.46015999857262    5.72539895351094
C         0.16720909357231   11.85118136142600    6.34663963631964
H         0.32852755757319   10.81665315821067    6.08239113216108
C        -1.04416727023137   12.25067716397809    6.88623764985675
H        -1.83210988141150   11.52946399997086    7.04579167459569
C        -1.24065883725940   13.57938368664663    7.21914514987691
H        -2.18368172029783   13.89843766069784    7.63902785932541
C        -0.23220248886614   14.50632089514325    7.01657868117980
H        -0.39593707321279   15.54213118161082    7.27654349972239
C         5.65812873540261   15.27969427562576    2.44292042308060
C         7.00770143756433   15.34034424698149    2.09182453157045
C         7.39800284582626   14.85191006470983    0.85584153697187
H         8.44051563571875   14.89693920697657    0.57739658328016
C         6.47759820256311   14.29727832345647   -0.02256655976808
C         5.14867943464769   14.21244656090086    0.36444285925789
H         4.42863520204014   13.76065520746152   -0.30135411098129
C         4.72342719587047   14.68588997273804    1.59668981228562
C         7.99294606578445   15.95190801801387    3.06420882900197
H         7.72551293627586   15.59565409036305    4.06774558739035
C         7.86981219171416   17.45833239429555    3.05118923991343
C         7.99852824581347   18.17343482809164    4.23383959077829
H         8.18549432615734   17.64882623502877    5.15915058527051
C         7.88185317109311   19.55128647476233    4.24389379856330
H         7.97555189633788   20.08618214870580    5.17748157137247
C         7.64014633471608   20.23541396687155    3.06524903345151
H         7.54857235682869   21.31152493569296    3.06964102412393
C         7.51490612732514   19.53210902451769    1.87893951025336
H         7.32697465328020   20.05949927137646    0.95464100927283
C         7.62619815879572   18.15297286250515    1.87152914277512
H         7.51629419426869   17.60934807729122    0.94349761418365
C         9.40820307827852   15.48058451036111    2.80398800561502
C        10.31160642159096   16.22865623643545    2.06088478215701
H        10.01866898568320   17.18956319388723    1.66288668342640
C        11.59175042757291   15.75550315286428    1.82825773951655
H        12.28396522867870   16.34848845676855    1.24770016327224
C        11.98405629215528   14.53000134576103    2.33713072551394
H        12.98383844009449   14.16259657222139    2.15626681317423
C        11.08760772544940   13.78160138224987    3.08100788971677
H        11.38448497481513   12.82714475043809    3.48912852059280
C         9.80732726269619   14.24963031600346    3.31375256952162
H         9.11916974800442   13.64813752894666    3.89177611706405
C         6.90635692990392   13.80322809639932   -1.36979842851143
H         6.67864802861381   14.55014774494943   -2.13115936012830
H         6.37668291726575   12.88960824722935   -1.62995910932516
H         7.97608074736188   13.61164597787352   -1.39020468490787
C         3.27872609371905   14.54113979837556    2.01882530902218
H         3.23782446517952   14.65351713318640    3.11044290677816
C         2.38087089078759   15.60938240744255    1.43517265694635
C         1.00792222863184   15.52722876192854    1.65214786425500
H         0.60528769346980   14.68233324805273    2.19449139962869
C         0.15791706751676   16.50736259460433    1.17495389303453
H        -0.90466105509217   16.42777730004664    1.35193365751231
C         0.66814955932830   17.59014444915402    0.47761712264285
H         0.00551484569545   18.35729419775351    0.10477449083496
C         2.03136165232728   17.68262242167977    0.26252989682024
H         2.43803468793953   18.52468584186137   -0.27870953777515
C         2.88266559432443   16.69973791277961    0.73910209304120
H         3.94550046508230   16.78388336728992    0.56369014887406
C         2.81679754704855   13.13249837514084    1.71070906857259
C         3.16175986255661   12.11079764761782    2.58705149365403
H         3.74399126825002   12.33681215224866    3.47129977249007
C         2.78843877180160   10.80531690506899    2.32667753615243
H         3.06675813043461   10.02358926327162    3.01747996162251
C         2.06594795396368   10.50467993880589    1.18425772153215
H         1.77026851079163    9.48615097632087    0.97973465401815
C         1.72761895895555   11.51562197746479    0.30152049385503
H         1.16950843414791   11.28748776792516   -0.59521245552921
C         2.10381921301646   12.82236923942765    0.56034038464999
H         1.83314041714288   13.60561933189108   -0.13409095642781
C         9.18245174910140   10.19465657235051    5.06936067343303
C         8.01111858232874    9.34938316581814    5.67120020548018
C        10.49155403684544   10.13662165596088    5.85463047936021
H        10.84521478073804    9.11037411815366    5.92445049034071
H        11.24285617010319   10.73211282827306    5.34002495414448
H        10.36950858186641   10.54347015313997    6.85368645024126
C         9.46910518503051    9.84480727516988    3.60110955620868
H         9.92069779886114    8.86064218491143    3.50829998885396
H         8.54932074415718    9.88475590182647    3.02176652729000
H        10.15107777086945   10.58817494661090    3.19239468197791
C         8.14185301238031    9.15281222959031    7.18941469826911
H         8.97079664792148    8.49414123381070    7.43506819793971
H         8.27448855629444   10.11400204252801    7.68139683557208
H         7.21831599307548    8.71359582151913    7.56169501112309
C         7.79373302777317    7.98646215003129    5.01583769008980
H         8.69178636467468    7.37849677069960    5.10083858009477
H         6.97597783758094    7.47792761214252    5.52205438199585
H         7.52613480759848    8.09198274194295    3.96888010572481
B         7.27078324618790   11.48338652550225    5.20439225673977

