55
CSD_code = SOGVEQ | q = 0 | S = 0 | Stoichiometry = C24H20N6NiO2S2 | MND = 4
C         3.50316506622000    7.65513947745727   12.78170993013615
H         2.91324367325761    8.55003574170419   12.81807990352420
C         3.96650602098899    6.91286430491925   11.73381543636136
H         3.81114421594887    7.10375807197974   10.69192145090653
C         4.68920178419003    5.84595730711320   12.29957177265440
H         5.18800196216362    5.05261965305987   11.78457212021690
C         4.61544288274205    6.01296169047530   13.66875954624726
C         5.10590993050491    5.26919304492315   14.78401109520035
H         4.79206146692755    5.62411723011223   15.75793634331541
C         6.77929034731660    2.63685508615765   13.44150594633698
C         7.63303148747694    2.74356857593573   11.11393230429035
C         7.91178578959291    1.93827016601915   10.00955498576345
H         7.86771284066568    0.86286985131574   10.10959760096632
C         8.23874189234972    2.50991147857490    8.79574855815598
H         8.44893510064578    1.87610306748926    7.94706665655863
C         8.29592606858646    3.88805668384878    8.66537481646117
H         8.54780524657956    4.33311813881429    7.71490388968377
C         8.03550105376185    4.68874751555534    9.76477272189931
H         8.09014722125195    5.76362027370746    9.67502822318728
C         7.71039666671733    4.12782280103696   10.98584079557137
H         7.52240274796038    4.74769157705049   11.84619102069308
N         5.88606267690163    4.22786470326699   14.73511676592680
N         6.36869146249009    3.86560562773235   13.53171327901723
N         7.31323463448297    2.11773773855633   12.31363460352743
H         7.45842333104338    1.11685030840530   12.34556799499682
Ni        5.97110265759898    2.97012388239650   16.20250102622247
O         3.88314546207601    7.12515056745058   13.94820636971239
S         6.60342094392280    1.49683443055449   14.75084315438473
C         8.43903357620363    7.65514495000114   19.62328949130734
H         9.02895054340337    8.55004406806577   19.58691909775242
C         7.97569940951020    6.91286591032999   20.67118429502159
H         8.13106336803311    7.10375898098874   21.71307811607209
C         7.25300421841206    5.84595828332364   20.10542849386394
H         6.75420814303797    5.05261825466954   20.62042849446090
C         7.32676068502155    6.01296315030123   18.73624064107585
C         6.83629452614456    5.26919339640715   17.62098948737792
H         7.15013888065062    5.62412046737327   16.64706389608266
C         5.16291435816231    2.63685601319060   18.96349564992060
C         4.30916732869860    2.74356928124300   21.29106756540756
C         4.03040542104840    1.93826998385347   22.39544230560756
H         4.07447521952622    0.86286967932310   22.29539817194296
C         3.70344481746569    2.50991032812035   23.60924798915400
H         3.49324514024677    1.87610115078986   24.45792771453275
C         3.64626465121414    3.88805548761586   23.73962375394118
H         3.39438204481622    4.33311616365818   24.69009414207033
C         3.90669781838267    4.68874726619790   22.64022847737203
H         3.85205499219240    5.76362005566978   22.72997455315798
C         4.23180612210279    4.12782355866255   21.41916098340270
H         4.41980662085591    4.74769306953063   20.55881274356367
N         6.05614199064005    4.22786472352343   17.66988431672262
N         5.57351117957567    3.86560708378486   18.87328730037377
N         4.62896733524907    2.11773905247026   20.09136573243323
H         4.48378007010853    1.11685138918432   20.05943215854325
O         8.05905052776300    7.12515715799796   18.45679344078055
S         5.33879637717621    1.49683209812300   17.65416267613988

