55
CSD_code = SOGVUG | q = 0 | S = 0 | Stoichiometry = C24H20N6NiS4 | MND = 4
C         2.20624109173761    6.96244981820280    4.86039502404317
C         2.08832621611691    7.07881703398553    6.24448568295907
H         1.16946905544548    7.45486678581893    6.67229642868309
C         3.13769420373888    6.71272735108727    7.06472880910840
H         3.03392821748475    6.80206132573023    8.13599783509425
C         4.31631687233226    6.23343212848973    6.51736638972692
H         5.13431056900625    5.94496604315809    7.15987365338387
C         4.44082244700810    6.13594482894359    5.14136140522456
H         5.36219366280290    5.77783608207522    4.70684617943110
C         3.39835162051210    6.50137607849833    4.31116134072733
H         3.49832928415429    6.43726508782295    3.24140665620365
C         0.85978863484059    7.10814067365758    2.77936184328822
C         1.43351141563444    4.95439167309875    0.23179467146033
H         1.21941633284863    4.81812003324408   -0.82053781682866
C         2.03445177175297    3.86663545490200    0.91085987217681
C         2.37647944299545    2.64782638227983    0.35800775279097
H         2.23912756044479    2.42112380715095   -0.68403813294141
C         2.90788178137602    1.75557088256502    1.29604474480239
H         3.23346271286565    0.75881281288049    1.05613504079661
C         2.96818733851250    2.29386703894632    2.54913811513290
H         3.33383363187939    1.82877986977041    3.44353465299933
N         1.12876110967731    7.36632502193112    4.07673301882895
H         0.42900388854642    7.93116103498498    4.54065097729035
N         1.50718924631857    6.23089935331881    2.07117696347674
N         1.12073611201953    6.09569237702830    0.78542718547619
Ni        0.00089026985708    7.40192345644151   -0.00001019067382
S         2.38299922384369    3.90344277921053    2.61313549897975
S        -0.48201215331865    7.98229811317345    2.11557018733693
C        -2.20639928960615    7.83951875299577   -4.86014427655928
C        -2.08842193666717    7.72302069106018   -6.24421286551822
H        -1.16955992242291    7.34689893279507   -6.67194426822254
C        -3.13775948326071    8.08904288685367   -7.06451708986963
H        -3.03396486403012    7.99957364374836   -8.13576849854956
C        -4.31637616208438    8.56843361725133   -6.51723133439087
H        -5.13434467832479    8.85685015957849   -7.15978963085260
C        -4.44093617159818    8.66603899314734   -5.14124030240451
H        -5.36230193651272    9.02422269746561   -4.70678103153511
C        -3.39852017702687    8.30062540528102   -4.31097167256525
H        -3.49851566348424    8.36482000540899   -3.24122625848858
C        -0.85998498744796    7.69408313162928   -2.77907906400034
C        -1.43392437861213    9.84796678551429   -0.23165360918900
H        -1.21949281685986    9.98451333222542    0.82057103930145
C        -2.03477498700628   10.93567052611197   -0.91091009939189
C        -2.37664120807981   12.15467103905806   -0.35836469862066
H        -2.23856272633479   12.38185885089866    0.68348625067375
C        -2.90815181303756   13.04669625305888   -1.29659605091334
H        -3.23268756017812   14.04390836504033   -1.05706257012004
C        -2.96892177642926   12.50797637286232   -2.54946007955877
H        -3.33390625604346   12.97314943158837   -3.44412196760680
N        -1.12893836409040    7.43576947987385   -4.07643829668490
H        -0.42911290287604    6.87097472900513   -4.54029878067809
N        -1.50751336203676    8.57116667619996   -2.07083840257963
N        -1.12080594124463    8.70672155817793   -0.78521610088088
S        -2.38130391167014   10.89929177807028   -2.61358080267741
S         0.48213171653153    6.82028257670237   -2.11551332709682

