59
CSD_code = SOHDAU | q = 0 | S = 0 | Stoichiometry = C28H25AuNO3P | MND = 2
Au        9.40208370547895    1.74090493456126   44.91904041095059
P        11.22392916980064    1.17779036025320   46.06720789197308
O         7.63860436122452    2.33657664807728   43.84508497899777
O         7.98277787986830    0.20234508575883   43.46547208807029
O         4.55576951829140    0.51303224517924   40.18086306244780
N         5.97719117493390   -0.08623071168552   41.82648109532897
C         7.32440125706975    1.23938295160559   43.30392062797605
C         6.06894638528569    1.21607208982580   42.44149319101044
C         4.83970628005754    1.51964376293499   43.30303523800628
C         5.24646056315990   -0.33278336491652   40.72166484461872
C        12.58999226764815   -1.15452810940535   46.78857622940794
C        12.86450889742124   -2.50517044892157   46.69223959376598
C        12.16335309383194   -3.29469112808161   45.79257752141068
C        11.18241062979315   -2.73570639231805   44.99055522585687
C        10.89859318716549   -1.38349296145465   45.07978655483230
C        11.60868297810917   -0.59118476605365   45.97556418615478
C         9.90929258771190    1.23484836271368   48.46331248549090
C         9.76777189196117    1.39901992278137   49.82796863705204
C        10.85084610288241    1.81035598967547   50.58937464964021
C        12.07360505884761    2.05536333019774   49.98574218480105
C        12.22404784527641    1.88770064043413   48.62047381006238
C        11.13846026685882    1.47507290079093   47.85538043539027
C        12.77858526651955    3.40315279360605   45.72444081644993
C        13.87436548509083    4.12437546896079   45.29347817762085
C        14.92747928807515    3.47345802350808   44.66743964134439
C        14.87994818231093    2.10372787092664   44.46886592069724
C        13.78648766280598    1.37281281473763   44.90149766212345
C        12.73919816591269    2.02062906363730   45.54574362984918
C         5.14451804403215   -1.93454421951132   38.84040502598956
C         5.21312635273781   -3.20584752565815   38.30226578215266
C         5.46426223806372   -4.29156512698851   39.12486563865263
C         5.63987831408327   -4.10087662795580   40.48554915320180
C         5.58113084140999   -2.82829200266818   41.02568270548251
C         5.34099962754927   -1.73264228400899   40.20283975758640
H         6.64548527599716   -0.75443584923370   42.18942069474767
H         6.15252120246145    1.98635450242024   41.66439878386247
H         3.95604437309562    1.53598550980256   42.67054361291198
H         4.71909340276503    0.75405652427818   44.06727317001008
H         4.96332899020416    2.48662855809859   43.78250754972891
H        13.12906936659038   -0.53276882258981   47.49076558057938
H        13.62505424888102   -2.94533037798771   47.32018055432710
H        12.38223735668200   -4.34976634356852   45.72124867273529
H        10.63444430909568   -3.35248218749078   44.29442344729780
H        10.12609446601405   -0.93966971377089   44.46526865726291
H         9.07136226825663    0.92617926596079   47.85021510291680
H         8.81377676906623    1.21283499802280   50.29818355368751
H        10.74054669118071    1.94435572723520   51.65498747266965
H        12.91483557884392    2.37967004342648   50.58064678721001
H        13.17714805878424    2.08600306191470   48.14928210038374
H        11.94278688239640    3.89689501895412   46.20436445474505
H        13.90784095284472    5.19393825423050   45.43817949622711
H        15.78303350277040    4.03783444418705   44.32796902228695
H        15.69629550576327    1.60067217787015   43.97206261587748
H        13.74531714420653    0.30443038416471   44.74058514652828
H         4.93667981983337   -1.07595018341830   38.21940485039933
H         5.06520452564166   -3.35264698250170   37.24225436966342
H         5.51440993727548   -5.28723763364416   38.70842270625748
H         5.82144145903255   -4.94956844202371   41.12964630088506
H         5.70023334104856   -2.69649152491082   42.09157644237850

