99
CSD_code = SOHHII | q = 0 | S = 0 | Stoichiometry = C42H52Br2N2Ni | MND = 4
Br       10.74008030360111    4.31129709325107    6.51155614134745
Br        9.23353636163403    2.88877980105182    4.03309595192495
Ni        9.29783435054349    4.92469782997864    4.92144306659055
N         8.63751026295077    6.52058267327146    5.80586239795981
N         8.66699729558985    5.88108305153914    3.32754858586796
C         8.63501889409958    6.69363557769229    7.19957987072180
C         8.69202836924980    7.58401584997818   15.70673553983403
H         7.91935396463395    8.28358196297517   16.02217319614052
H         9.65560507705419    7.94277588866616   16.06013785404222
H         8.48673515946671    6.62518786667345   16.18311625559531
C         7.90153423328197    5.79571297602888    7.98978087414572
C         7.90449757728530    5.96778592988538    9.36155429285433
H         7.34072656662045    5.29191288400632    9.98391405553271
C         8.65755349846434    6.96893760697926    9.96560785503464
C         9.42427982284166    7.80453531822472    9.16303282189840
H        10.02570164494953    8.56839958400357    9.63035776185972
C         9.42427971891468    7.69391339174517    7.78344200956049
C         8.66605458370405    7.12378548729611   11.42638094301995
C         7.48921596889444    7.02372927331671   12.16507177408294
H         6.55319537323307    6.84370262461311   11.65552320814730
C         7.50277103754849    7.17941223666836   13.53669668266980
H         6.57899355759648    7.10627415869508   14.09365225655719
C         8.68963909903288    7.43089771464242   14.21644956401525
C         9.86360319170601    7.52174680558586   13.48056352933665
H        10.79872327109834    7.70813785100951   13.98985051159684
C         9.85439186710063    7.37454808511766   12.10670863457560
H        10.78194319859349    7.42727939538811   11.55581890869363
C         7.11176483501015    4.67886640539176    7.34277596838186
H         7.54074032236447    4.47596705721584    6.33622655801533
C         5.65523669572041    5.10650839842343    7.14857076980280
H         5.19610871778712    5.31769648672849    8.11264254098393
H         5.09154921749511    4.31284305141600    6.66298716400216
H         5.58725216032544    6.00364452621169    6.53418811069671
C         7.19995588574287    3.37096635110707    8.12652831898076
H         6.63513885802409    3.42354517103031    9.05405922914302
H         8.23763591483882    3.14069463575521    8.35697787665262
H         6.79316002329634    2.55833189989383    7.52827153278705
C        10.33914578714236    8.56788992204783    6.95564276542821
H        10.12458814777527    8.41739907888849    5.89222346477334
C        10.15193918210928   10.05418340047245    7.26707570698928
H         9.10445948139099   10.34176408093343    7.19288583568163
H        10.72720922798975   10.65541538547825    6.56565763626308
H        10.49673756634832   10.28800272977302    8.27044966430310
C        11.79034200388883    8.13995582808788    7.19409443509087
H        12.46070676506015    8.71250045741663    6.55616474384276
H        11.91309405488286    7.08204641056679    6.97378903903658
H        12.07278053840186    8.30447306998275    8.23048659804083
C         8.94440217344423    5.46690339247575    2.01409818961662
C         7.91358993700023    5.11701618174337    1.13241891923966
C         8.25279381091909    4.72620403675852   -0.15213853241377
H         7.47320137205850    4.43132224729101   -0.83696655143952
C         9.57440306315526    4.67294711899988   -0.57685072039628
C        10.58041511713992    4.97625459533701    0.33448789628109
H        11.60808836927871    4.92731694808763    0.01300465901858
C        10.29110606821486    5.35412609246794    1.63179689514278
C        11.39708075197559    5.67533481792636    2.61302477262725
H        11.00328022241686    5.55197258494524    3.64687367892899
C        11.83471068809082    7.13333937593424    2.45860040509536
H        12.22780058366973    7.30328341952401    1.45779430724220
H        12.61135736473757    7.37071009900641    3.18249935491873
H        10.99739220472319    7.81260481121351    2.61621201594452
C        12.58701965931697    4.72623618603976    2.48745840410288
H        12.24358958888139    3.69418032295963    2.48749431372002
H        13.25404730121613    4.86367309179969    3.33576504234826
H        13.15315089495397    4.91264637596553    1.57798315838126
C         6.47176143049514    5.06100793564182    1.58333048914695
H         6.38607146644136    5.50342411281309    2.58169514614184
C         6.03955521092442    3.59552544109311    1.69118575452539
H         6.08862818181938    3.10904348238850    0.72043270163895
H         5.01838494491207    3.53150330603778    2.06129263374967
H         6.69442232233957    3.05767933526064    2.37278834560283
C         5.54376503009117    5.83133579305623    0.64187125626465
H         5.89819245962737    6.84880036840102    0.48475460886906
H         4.54127778355144    5.87538370136804    1.06310769568970
H         5.47908582991324    5.34116127081792   -0.32571129590597
C         9.16934207417307    4.77657387187971   -3.02972441799480
H         8.34399810156275    5.45051158433387   -2.84774540264669
C         9.49555548750145    4.42868180654750   -4.32649249516625
H         8.91367400497103    4.82343532781922   -5.14776037803668
C        10.56216337611246    3.57892278018072   -4.59068178668057
C        11.29555186948020    3.08746028940981   -3.51664199666153
H        12.12410164720782    2.41846861900761   -3.70212388250932
C        10.97914088593286    3.43857316823255   -2.21943030746537
H        11.54872404106107    3.02866166274413   -1.39843001920318
C         9.90890852514081    4.29032503897331   -1.95502043770158
C        10.93079067888416    3.21452066709099   -5.99625371515041
H        10.08986611841693    3.35974075745558   -6.67030839565068
H        11.25525037512166    2.17754060109106   -6.05399785299710
H        11.75415343215831    3.84177087137788   -6.34058491227702
C         8.02909602785214    7.33730861458213    5.01163276158942
C         8.17141430845809    7.04183496224583    3.59623987472660
C         7.22146595667803    8.51075699664263    5.46345893121503
H         7.05389184297088    8.46579562133260    6.53787516909642
H         6.26245171327616    8.52875956537219    4.94721971937453
H         7.74269818180386    9.44026674480215    5.23379530174561
C         7.80912820880308    8.06956624370385    2.57350858920280
H         8.19188116064224    7.78394858780416    1.59566942601319
H         8.21802054385692    9.03981766755042    2.85231200459815
H         6.72560797132890    8.16927823940001    2.50762817599834

