81
CSD_code = SOHJUX | q = 0 | S = 0 | Stoichiometry = C39H36ClCoNP3 | MND = 4
Co        4.44368123417980    5.72082683614001   10.68059267238266
P         5.44446715988537    7.47252641390316    9.79023770790929
P         2.28390387959116    6.53415428012175   10.74891638593957
P         4.06931327557611    4.95113134419280    8.70733050929561
Cl        4.98434691407746    5.74209645652874   12.69723670942541
N         3.09547494895228    7.48165275036827    8.20613426127945
C         6.21683055758682    8.88801477486185   10.64741005786811
C         5.86788060023783    2.93319513509346    8.44929634489560
H         5.65138382448930    2.83289986009343    9.50717824910851
C         5.23100224653357    3.94046918032569    7.72746193847079
C         6.06193065257134   10.22641476254117   10.30522534981885
H         5.43849264364568   10.51897606404141    9.47346471469309
C         0.69403476244240    5.76784545183644   11.20123160688968
C         4.10766129335341    8.33005589494289    8.77884534638554
H         3.61909189886878    9.04163387906118    9.45244444558980
H         4.58640379230398    8.88206654667321    7.95953159902939
C         0.53082134777231    2.01549790807563    8.74526698747578
H        -0.29961906550871    1.32566970350721    8.77659892591933
C         2.00399624757771    3.42999861434304    7.48184228758179
H         2.33690313347064    3.81933820378840    6.52887276077769
C         1.94227094483096    7.22207069886624    9.02579986302018
H         1.32182107986039    6.50049717943639    8.48827278279035
H         1.37636102049838    8.15469217510505    9.14235944379921
C         2.11108226231004    8.10495343420241   11.67428344377753
C         3.21727110030559    8.67978126181186   12.28530693171986
H         4.16010356097390    8.15125523141577   12.28387281320200
C         2.64583789312195    3.80794517158640    8.65643670105647
C         3.11024296413829    9.90794107525972   12.91439752309286
H         3.98063386088858   10.34662893588536   13.38012651444321
C         6.75960457598256    7.14166654415873    8.56355910609475
C         8.14693671331891    7.67431932614874    6.67792942674564
H         8.44103317015344    8.36335974577782    5.89901148735984
C         7.41767962730934    5.92258914713161    8.68464900839753
H         7.13299039762607    5.25632800351701    9.49059091605349
C         0.52623318986332    5.57525384646297   12.57431170271675
H         1.28509656415579    5.95270981930446   13.24842279613472
C        -0.58084071979397    4.91442075331870   13.06435568256595
H        -0.70196302374677    4.77873729386483   14.12923671891905
C         7.66774817646912    9.52517342127232   12.46126253578463
H         8.28544604617739    9.25184243098708   13.30390531116121
C         6.77013291160713    2.08891186437927    7.83415529542997
H         7.26202066095215    1.31304060830978    8.40248595831312
C         2.24261855656118    3.25545088424281    9.86720077145787
H         2.76292564467200    3.53894405380897   10.77775171686961
C         3.61070965053303    6.32076637458793    7.52565273793362
H         4.52052815322183    6.62090945778455    6.99435378208171
H         2.86360319771298    5.97750430675755    6.79956029374120
C         7.02255289859760    8.54593996191292   11.73090928200836
H         7.11047814638678    7.50368904786115   12.00721243039491
C         8.41935545325049    5.57090510693722    7.79922399698060
H         8.91722196320090    4.61747851152749    7.89693763795089
C         7.51090092530211   10.85783813491697   12.11625346862188
H         8.00822499406104   11.62830186361484   12.68732928072767
C         1.89271491558370   10.56522470105256   12.94669817544588
H         1.80486634669396   11.52277402197087   13.43917600232902
C         6.70900630635182   11.20351477419120   11.04141107934288
H         6.58381682409722   12.24334059745539   10.77428114675275
C        -1.53364006690892    4.41764770885979   12.18709105077974
H        -2.40153102346163    3.89793778354047   12.56565367437649
C         8.77454665310859    6.44289446821026    6.78446842793119
H         9.54885390769323    6.17084753540020    6.08231930895952
C         5.50370599374359    4.08540806741951    6.37387034336357
H         5.01870896515701    4.85291729485710    5.78917252055961
C         0.88571048494540    8.76776236533438   11.71474458406330
H         0.01456096984137    8.31890636777731   11.25547725669953
C        -1.36281057172841    4.58135944993900   10.82362303647185
H        -2.09668747059536    4.18624217041714   10.13549871616433
C         7.14928338579968    8.02991539120452    7.56692428375942
H         6.68432356925891    9.00274115319055    7.48665516414765
C        -0.25321191244477    5.24427266090414   10.32859413641522
H        -0.14083813908216    5.34320879321077    9.25862005405779
C         1.18838209420878    2.36229208706609    9.91336486116245
H         0.87606601949563    1.94359488067089   10.85846155938567
C         7.04743401114995    2.24630853090072    6.48520712324417
H         7.75807125166578    1.59416260009050    5.99907339460417
C         0.78006568337621    9.98893830699231   12.35237647234763
H        -0.17399716322991   10.49567035145518   12.38578369835201
C         0.94315518799524    2.54454048065477    7.53201654971355
H         0.43808842992460    2.26043363288194    6.61973457964603
C         6.41308109203900    3.24054631074826    5.76079505414448
H         6.62721034721785    3.36118778101436    4.70857152369456

