55
CSD_code = SOHJOQ | q = 0 | S = 0 | Stoichiometry = C20H26BrF3N4Pt | MND = 6
Pt        7.66693105038090   14.13116544519060    2.62509900408286
Br       10.14693137206580   13.85023011340988    3.13295711720836
F         2.85120536062482   14.74211488625692    5.45388019113259
F         2.97146672524466   13.74658395891516    3.55984600932352
F         4.60590099144099   13.63411574444616    4.95178453752758
N         8.23198104584374   15.83404575267399    1.24234111785698
N         8.91581089198319   17.75736325463385    0.43870554175044
N         7.62194898517196   15.80127232609829    4.16560431270186
N         7.62360398580628   17.81205654794746    5.04575482964753
C         8.66079533142666   17.03471446211422    1.56041527700243
C         9.38200655672585   19.11286574558771    0.34820419445180
H         8.66601184888560   19.80149995277483    0.80360816904646
H         9.49586584405334   19.37534849529829   -0.70178512630321
H        10.34705646692434   19.22915077922757    0.84353269019649
C         8.62762914786943   16.95545031802235   -0.62870054934697
H         8.74881346301426   17.28561804993587   -1.63932839888527
C         8.20398826839025   15.76932061858008   -0.11623228978393
H         7.88216277813044   14.88888182575383   -0.63393064725355
C         8.88246997218569   17.61660778373429    2.91897162584558
H         8.65097990355023   18.68714993097311    2.84928326191841
C        10.36129238796067   17.45813513048816    3.33110088391401
H        10.53711727365323   17.92475097306583    4.29726521844373
H        11.01839724731881   17.91869311143342    2.59804050693943
H        10.61517534717629   16.40343971111800    3.40527001575813
C         8.01470768414862   17.04535741832900    3.99595324397229
C         6.96225572169464   15.75600281826852    5.35394881568305
H         6.54391000011632   14.84897428637117    5.73672450632846
C         6.95403126593928   16.99559762598507    5.91052767412674
H         6.53646273015911   17.35462544549605    6.82763484206754
C         7.81809744669045   19.22292598991309    5.22983246309102
H         8.87811007158514   19.48079828108114    5.20082120970553
H         7.41762548239322   19.50663618071902    6.20104193051335
H         7.28991268150628   19.78879580375202    4.45832895746948
C         5.60801085509375   14.40001001811676    2.10518427545804
H         5.62274012292578   14.47504270991303    1.01518679799529
H         5.03133161251350   13.52409409595535    2.39365429098629
C         5.08077642310077   15.64221953634608    2.67069732068410
C         4.26337990460578   15.71713240661698    3.81620535051059
C         3.89661847211521   16.94074736296421    4.36281977005025
H         3.28043107601272   16.96453076038794    5.24848435327599
C         4.30259624713221   18.12482831051144    3.78040414673525
H         4.02267900854232   19.06961746100006    4.22049765041475
C         5.02763058343280   18.07830390446842    2.59804532301156
H         5.29650477336878   18.99658847856753    2.09294628173964
C         5.38900172381858   16.86715834580678    2.05467782838701
H         5.92296138248332   16.84541441988960    1.11665401153502
C         3.69241203088188   14.47509516783977    4.43716952697945
C         7.27012880076061   12.58634842585240    3.92413421312705
H         6.31702175926349   12.09305537501638    3.74222958575599
H         7.26811088199852   13.00039375396076    4.93328212672553
H         8.06049724696941   11.83594483938827    3.87706165977005
C         7.84041092832777   12.69900797072472    1.15313405541572
H         8.06336216679034   11.71312899125412    1.56072174153780
H         8.68988099416870   12.99823208586176    0.53322961056125
H         6.95125767563265   12.61121681196641    0.52767894321014

