39
CSD_code = SOHLUY | q = 0 | S = 0 | Stoichiometry = C20H15BrN2Pd | MND = 4
Pd        9.38291628756500    8.98076149255880    5.30521235086295
Br        7.54138137306132    7.47590659548821    5.00268350039265
C        11.79378025282489   12.40093095453195    5.35132441920016
H        11.71439832835298   13.43954334327527    5.06334245408663
C        12.96994404226417   11.92062025950532    5.91214678716437
H        13.79798944475229   12.59976145418396    6.05310501873555
C        13.11446040835455   10.59427115344237    6.29747224426455
H        14.04409525507234   10.25307955064498    6.73027757087552
C        12.04697664740730    9.71118523851482    6.12211626811107
C        10.85935242282638   10.18983057620934    5.55329653595771
C        10.72008027637329   11.52818076319805    5.16272332797327
C         9.42750867899783   11.76877960755851    4.58125238284045
H         9.12988874005782   12.74796515891296    4.20493179080501
C         7.35627221145141   10.90264409213162    3.91186323072792
C         6.49239931553751   11.91184431203834    4.33399767914615
H         6.79886251063298   12.58040048195866    5.12655341342222
C         5.23425352694221   12.01696760665772    3.77148527721971
H         4.56135504824063   12.78970784892078    4.11245857811598
C         4.83555490194325   11.13375317582239    2.78180560054676
H         3.84958523232297   11.21770872158756    2.35068519809279
C         5.69819299716916   10.13763267360943    2.35205098459353
H         5.38881460045718    9.44622709261844    1.58368487412208
C         6.95361491670007   10.01594324900905    2.91297698022009
H         7.63862500204900    9.24359605761630    2.58524091607344
C        11.93576503684573    8.31940697778098    6.46461761853903
H        12.75321763259952    7.76453426090818    6.92600601313100
C        10.60364243363076    6.39458266313097    6.55550995542714
C        11.50542644404171    5.42031870890377    6.13062879185371
H        12.35774674131702    5.70703844297919    5.53030373325392
C        11.27495727279387    4.09244579324097    6.43728440469053
H        11.96674256425834    3.33838778530411    6.09228150154973
C        10.16119701373543    3.72939276699561    7.17634246200905
H         9.98404420832403    2.69009417180280    7.40778457525551
C         9.27041753658883    4.69847117360829    7.61045313591530
H         8.40033511354441    4.41797515200079    8.18353632489455
C         9.48397551155016    6.02694270864360    7.30198786531004
H         8.79707337339605    6.79463679664010    7.63639037201828
N         8.62848183969966   10.75116364513262    4.47511204867729
N        10.79247485631758    7.74576749293379    6.24317381392495

