93
CSD_code = SOHMAF | q = 0 | S = 0 | Stoichiometry = C42H38Cl2HgN10 | MND = 4
Hg       -2.75756120339238   -1.56841144365276    4.91085901059290
Cl       -0.84388029264378   -1.99920762889373    6.08071377210764
N         5.22899043037005    9.65109334820318   -2.18767430836960
N         9.19781158284414   10.71815135427678   -0.86470630407633
N        -0.16559562361686    1.40499351213267    2.80845992519710
N        -1.20653848481502    1.57970057981183    1.98120097142965
N        -1.71895284886964    0.05408368009628    3.50523249891604
C         6.10812748351854    9.42970235379576   -1.48409865120541
C         7.18939712621470    9.15439262893124   -0.62201350192163
C         8.29545948988493   10.01797185729857   -0.75313825595454
C         7.17059748214130    8.11934494268663    0.27673448835227
C         8.32372277185083    7.88013142367551    1.19695435565407
H         8.11442346871088    8.39309583940306    2.14304162048940
H         9.23884707690706    8.31385727351528    0.78790586263641
C         8.51660687618987    6.38376029908467    1.47534232810917
C         8.89294198822926    5.65696656767106    0.18230526251476
H         8.09737561991601    5.72846638250657   -0.55608053738614
H         9.08079284634721    4.60393359953513    0.37996373787438
H         9.79523221063194    6.08894117400725   -0.24479867056229
C         9.63477523186252    6.19747388544194    2.50156419422834
H        10.57377499086545    6.58464183284896    2.11354849543254
H         9.76970565931384    5.14257890639960    2.72987991974314
H         9.40602232498966    6.72218815437518    3.42706693492864
C         7.20420005545757    5.81780886042285    2.03804617467038
H         7.28782688770511    4.73180327753265    2.10750730147247
H         7.05204961951298    6.20160192274942    3.05301373590684
C         6.00595423948107    6.18144098932581    1.21309564860411
C         6.04150772971230    7.25896216197191    0.38328806036696
H         5.18091545911465    7.49168991732118   -0.23052260798288
C         4.79894463811739    5.40978227051510    1.30236551224289
H         4.01698297098157    5.71157456959800    0.61879204143895
C         4.57010800659087    4.40452305904535    2.17075767044629
H         5.34223727146365    4.12677957486535    2.87578592445488
C         3.34667709374892    3.64455861181454    2.29411398535551
C         3.23793877441693    2.71195632176890    3.33375218776500
H         4.06838407677836    2.57706948748814    4.01100906027848
C         2.09442529950562    1.96526859414133    3.51955076859577
H         2.04357057370897    1.25883913713672    4.33227811134152
C         1.01969970819395    2.13494046449273    2.65190208110510
C         1.10876656465323    3.04747561087889    1.60338042608623
H         0.26646516847480    3.15730483893249    0.93933314850140
C         2.25527255332801    3.78975549358726    1.42916841287288
H         2.30348136866528    4.48634888379925    0.60795791162949
C        -0.48881803237230    0.47954100268354    3.72409543094064
H         0.13731395034090    0.12134258103879    4.51552824166094
C        -2.11845551030503    0.75921370173449    2.41957803035573
H        -3.08358884683319    0.64830433532151    1.96898944925866
Cl       -4.66886817535579   -2.00908098649139    3.74078922881592
N       -10.80746465952773    9.57398289736806   12.06198557004343
N       -14.76165346197676   10.66355319816156   10.71409775142585
N        -5.35203488909237    1.41618436120292    6.99158757084897
N        -4.31159668510397    1.59738737537221    7.81805570874827
N        -3.80009422377485    0.05648429549728    6.30914903034833
C       -11.67682089146480    9.36387662949181   11.34295260769100
C       -12.74578840867067    9.11170055613651   10.45861598340231
C       -13.85448132295710    9.97050324810636   10.59679923475063
C       -12.71356196831169    8.10026467553228    9.53363352236282
C       -13.85299001021056    7.88492773134984    8.59075530146113
H       -13.63108424609723    8.42440188992168    7.66244041728000
H       -14.77455668678141    8.30605231755147    8.99854792901512
C       -14.04028097940724    6.39678806437337    8.26779101772890
C       -14.43693381942271    5.63418542908531    9.53390662582807
H       -13.65359498873937    5.68555816537527   10.28690847178802
H       -14.62046619140924    4.58690970302513    9.30399758096504
H       -15.34652574044486    6.05355015213725    9.95808287724481
C       -15.14172085805414    6.23929608031221    7.21888399664374
H       -16.08667712109071    6.61648290725437    7.60225732320696
H       -15.27340187613661    5.19118047662813    6.95947341464752
H       -14.89790986600955    6.78913673221547    6.31198503922903
C       -12.71865622111934    5.84634267420995    7.71115146325619
H       -12.80114726378845    4.76268111196939    7.61002781778041
H       -12.54974557296944    6.25825603461461    6.70988845284974
C       -11.53438460133008    6.18654448935568    8.56581159079230
C       -11.58306617509313    7.24245843538242    9.42235390229451
H       -10.73258904655190    7.45823813753563   10.05609204154006
C       -10.32746085610574    5.41442788963220    8.47996980841696
H        -9.55833810635498    5.69739230883542    9.18572565463830
C       -10.08420443918127    4.42890116414301    7.59319660828306
H       -10.84279566453264    4.16991029793875    6.86675223251526
C        -8.86154420565468    3.66627594620154    7.47846158593073
C        -8.73899318906299    2.74902176489171    6.42678018307099
H        -9.55785746334364    2.62887158377068    5.73285305519668
C        -7.59619788253174    1.99912553972982    6.24996839056137
H        -7.53387332634330    1.30587334957163    5.42677203072187
C        -6.53618226333337    2.14985698127586    7.13896055729694
C        -6.63860919310835    3.04794986080435    8.19860699729391
H        -5.80723569013530    3.14425831503094    8.87835859426716
C        -7.78428898214237    3.79357722374294    8.36377640920735
H        -7.84285109836383    4.47884253709163    9.19378786724691
C        -5.02955361198561    0.48128540254442    6.08536329981642
H        -5.65654481100138    0.11451176862137    5.29854962351913
C        -3.40030925964870    0.77175008045172    7.38802110137920
H        -2.43539983727543    0.66398502266520    7.83984467818012

