42
CSD_code = SOHRAK | q = 0 | S = 0 | Stoichiometry = C15H20Cl3NOSTi | MND = 6
Ti       -0.19714236137344    6.82228580540021    3.82413179053701
Cl       -2.42946711249959    6.78706290554283    3.49068189663722
Cl       -0.24570559694704    8.75121163104633    4.83846938581406
Cl        1.88612399750249    6.32088905275246    4.53848390584398
S        -0.70670891299575    5.74698068750262    6.21659237214336
O         0.20106518828327    7.27035042955479    2.18267503872685
N        -0.23989432510304    4.85337692517194    3.24431461940996
C         0.52050232999624    4.41633960249327    2.28233031470726
C         1.24982316513724    5.31230668934721    1.45288867112335
H         1.97377986738568    4.88488058457286    0.77800230619577
C         1.08673477322522    6.68114844717640    1.44353117712507
C         1.91011609767133    7.56860633951493    0.60005937983977
C         2.13714758698976    8.86436114847986    1.07009990932096
H         1.70579908692304    9.16047901995307    2.02056201274333
C         2.91795792773090    9.74212100491848    0.34369264580673
H         3.09686214099060   10.73871530001589    0.71797605608331
C         3.46889804747969    9.34300254347415   -0.86373127295103
H         4.07661675727477   10.02956728532137   -1.43391501697407
C         3.23556499217024    8.06351674435967   -1.34290119653500
H         3.65626072256973    7.75742833612490   -2.28922353744676
C         2.46291396035287    7.17600577809428   -0.61744364287172
H         2.26713967616574    6.18963951415412   -1.00945812738345
C         0.68242973784528    2.94803170423956    1.97943996948471
H         1.05437506571756    2.41842377576842    2.85528386133417
H         1.38811637449867    2.80519082875545    1.16760859957488
H        -0.27145004792702    2.51249781874182    1.68393518971719
C        -1.01168363915136    3.96229810032921    4.08215144986928
H        -0.94271986226502    2.91550896680537    3.76583179930287
H        -2.06103174572431    4.28174755683584    4.01488074169929
C        -0.54149047415630    4.06112061853441    5.53628088150192
H         0.52745308924880    3.84427758581598    5.60780025607825
H        -1.10255610502969    3.37614918043392    6.17137679638546
C        -2.49707610628321    5.84833626325101    6.58575794544121
H        -2.68221787055152    6.91882455651780    6.68920667610897
H        -3.05303934553727    5.48656122297756    5.72133025408503
C        -2.86760094025382    5.11057697386679    7.86288407070199
H        -2.25946524447030    5.49106392910506    8.68472097098797
H        -2.65359472648337    4.04534114538934    7.75415083834033
C        -4.34673740423214    5.29876192692385    8.18058660784951
H        -4.57348143698456    6.35203593188977    8.32284625311828
H        -4.61017842406502    4.76335230049518    9.08903147122667
H        -4.96263890312539    4.92362383835259    7.36667667929675

