47
CSD_code = SOHSOZ | q = 0 | S = 0 | Stoichiometry = C23H19N3OPd | MND = 4
Pd        2.83241698243762    2.36497412074493    5.40544470381449
N         2.16639456967933    2.48229510947109    2.69695179627427
N         1.74544467061824    2.15942290529902    3.85620632793408
N         3.89411441568226    2.52566066042316    7.08273371423923
O         1.03759049906042    1.51746160366191    6.37543412488843
C         3.45334331242356    2.97583089994584    2.72760190097015
C         4.10980016987476    3.06185127076710    4.01512527770800
C         5.38335792565347    3.54906286300638    4.04820930128368
H         5.91867768068895    3.63778575649201    4.98870584919885
C         7.37444363997514    4.46627991423578    2.90823426236984
H         7.87610853528728    4.53759480880269    3.86366382969177
C         8.01201878942447    4.85952471985669    1.76077012606512
H         9.02130819642762    5.24314626338972    1.80317369003200
C         7.36108916239001    4.76749656729985    0.52368466561645
H         7.87654913790071    5.08111585856134   -0.37255830674418
C         6.08266417388242    4.28416787906256    0.45264670047640
H         5.57467165314357    4.21086865494298   -0.49847685135144
C         4.08507051675082    3.37050961649250    1.57087367398562
H         3.56946366135178    3.29348701035066    0.62523920049502
C         6.06190564713902    3.96482873497537    2.86900863321872
C         5.40090180555584    3.87175753369976    1.61528666137278
C         0.49851228565924    1.65384427069093    4.06324242927870
C         0.18898627217537    1.33585097203791    5.43445240571110
C        -1.10886714760881    0.81143978395960    5.67669283230568
H        -1.36996903096129    0.56241828052525    6.69457293175122
C        -1.99597023744369    0.62622860766891    4.65372507316401
H        -2.97681972269942    0.22394209601887    4.86888199011698
C        -1.68136322500370    0.94026908905536    3.31539394776859
C        -0.43968982528540    1.44902099136608    3.03551579902224
H        -0.14680556698888    1.70680273321141    2.02826028695409
C        -2.70497122747050    0.71889178705261    2.24271427810185
H        -3.05724333272249   -0.31227130977324    2.25783592672050
H        -2.28773094587253    0.93168741021472    1.26151709066111
H        -3.56709358992427    1.36771935974849    2.40138229113881
C         4.95589720619397    1.76328213755037    7.34602404061096
H         5.39898833429878    1.24501243242382    6.49921081214221
C         5.48447535491344    1.63792715146299    8.61826248056669
H         6.34391636091306    1.00608289742510    8.78248105861815
C         4.90406478219685    2.32763561539329    9.67771882116863
C         3.79579322081798    3.12192436498251    9.38616853951584
H         3.30379893848111    3.67708197868044   10.16997898984416
C         3.32422964928485    3.19072296700303    8.09078046574418
H         2.45471832246229    3.79539407244069    7.83915680835515
C         5.42621990643627    2.21897604935800   11.07184898836737
H         6.39032224023986    1.71808206845639   11.09131460306928
H         4.72771469163206    1.64830170231283   11.68361876982557
H         5.52755114093373    3.20560973925276   11.51988905793590

