50
CSD_code = SOHSUF | q = 0 | S = 0 | Stoichiometry = C26H19N3OPd | MND = 4
Pd        0.27603440833222    2.46935602531395    0.88682957152571
N         0.13706532078760    3.67405243018700   -0.69616052395789
N         0.16155395005917    0.13166715325132    2.39380068087518
C        -0.27442363409245   -0.26395454411739    1.14867459912039
C        -0.57526407566439    4.79293473901909   -0.55550258111195
H        -1.20859132915993    4.85452976019693    0.32764047884264
C        -0.34928142080122    0.73207850259819    0.10314856447136
N         0.45766772619743    1.37313792106708    2.45543505652093
C         1.18453548676714    3.39283204073909    3.39647954598716
C         0.91129597829920    1.98996873661143    3.57881923415967
C        -1.06663027645553   -1.97850833228243   -0.35784373035948
C        -0.52005845847668    5.82968426617692   -1.46787715276608
H        -1.11509565556602    6.71610037573343   -1.31085197917176
C        -1.58976314134258   -1.42166969724932   -2.66784863870137
H        -1.65227182464886   -0.68591844344827   -3.45798809077649
O         1.01686780411072    3.98195133874982    2.27837060778934
C         1.05219664188103    4.55440590959199   -2.71074458872551
H         1.71474351952059    4.42035436341059   -3.55206078570293
C        -0.78001850242412    0.33307599299625   -1.12782451274237
H        -0.85772263066436    1.04357575274787   -1.94529081165755
C        -0.62454989568953   -1.57459019176867    0.91712171266104
H        -0.55766167426350   -2.29795363830055    1.71629426208166
C         1.60629623556344    2.15988992868031    5.92713754425399
C         1.86238845981577    3.54386605639096    5.72241397978140
H         2.22685323798941    4.12080985811729    6.56169403539394
C         1.82831863378196    1.57542364510560    7.18268148204320
H         2.19870734117361    2.19878789717929    7.98464458731328
C         1.12319261920926    1.36452708410119    4.85607634693510
C         0.31042194210672    5.72672630405350   -2.58039401193437
C        -1.14821507360766   -1.01422897548011   -1.39727984663112
C         1.58326367428226    0.24215784008391    7.39533699128312
H         1.75838907533486   -0.19926766628341    8.36545855730534
C        -1.93633865954156   -2.72559138638849   -2.90739871661382
H        -2.27423555320493   -3.02750301050275   -3.88823354019816
C         0.87822179561703    0.00332389511003    5.10470668130813
H         0.50850517660625   -0.61362352986833    4.30294554187849
C         0.39923439008588    6.81220608867023   -3.60119249092738
H         1.43845356323165    7.02008906041334   -3.84797195542263
H        -0.07135416767235    7.72416943240141   -3.24420725218373
H        -0.10254458155797    6.50052020587801   -4.51725702611815
C        -1.85564377319617   -3.67763939549096   -1.88289401353391
H        -2.13196252403500   -4.70200394088557   -2.08656669544304
C         1.66256872249001    4.13706320969279    4.52323327510612
H         1.85807840882040    5.18794987038207    4.36789153688539
C         0.93765876284747    3.56045527051783   -1.75807755537200
H         1.49579347078826    2.63133876019701   -1.84305455947677
C        -1.43025453996630   -3.31169220590173   -0.63469839867381
H        -1.36583902019348   -4.04135713643760    0.16001029951946
C         1.10387846809260   -0.54171301491090    6.34616797757933
H         0.90793559843307   -1.59129460604383    6.51140630757884

