50
CSD_code = SOHTIU | q = 0 | S = 0 | Stoichiometry = C26H19N3OPd | MND = 4
Pd        1.22429641530546    2.53107699525616    6.61923013813040
O         0.60931772290772    4.28304926805062    7.67594223783359
N        -0.44346523675685    2.55311258532871    5.62169543707993
N        -1.39938923179293    3.39406879126582    5.68595261633800
C        -0.48440835399421    4.88565757213071    7.44148876712752
C        -0.76721466367358    6.07435966393824    8.19835563269615
H        -0.01546290754174    6.36636123607214    8.91838469640577
C        -1.89796713806195    6.79491920330346    8.02984463755990
H        -2.07134750087827    7.68558244695204    8.61861694269563
C        -2.88634139027999    6.41053308880124    7.08170515048509
C        -4.05921417859949    7.15960850727394    6.90352326284314
H        -4.20554263021403    8.04622357097481    7.50472394558348
C        -5.00421230341913    6.77800972546068    5.98478724221106
H        -5.90475563943367    7.35969691195926    5.85279852364699
C        -4.79746179690570    5.63090285689540    5.21652399184515
H        -5.54237797494268    5.33224233735833    4.49305793030642
C        -3.65631967923675    4.88381321045882    5.37426609356986
H        -3.49422880580705    3.99904356158166    4.78013296608436
C        -2.67448885632478    5.24997559897367    6.30672492230933
C        -1.47155209582514    4.46829747930699    6.47415723230851
C        -0.59875017637806    1.50119508900651    4.71577453603643
C        -1.70153261231137    1.28405381113708    3.91553745074877
H        -2.54696334395227    1.95225322469394    3.96083219483059
C        -1.71099724479451    0.18713347906952    3.04696119609267
H        -2.57937793623945    0.02416587312057    2.42486551432325
C        -0.64664025758706   -0.67467086403197    2.97156618256564
H        -0.67181867349220   -1.51514863129692    2.29243464919807
C         0.49673869925902   -0.48238043989812    3.77596681464220
C         1.62932727694134   -1.32220812119119    3.75284536364928
H         1.64287502150780   -2.17070613332723    3.08326921131152
C         2.69464193053652   -1.05792723657275    4.56925133773340
H         3.56235692010595   -1.70365152883603    4.54519451409329
C         2.69215871395414    0.04177863850543    5.44818087555697
H         3.56748703832343    0.19886187097145    6.07032846934363
C         1.61416071452965    0.89727234008403    5.51611594475276
C         0.51398864454783    0.61889066574204    4.66142820774629
N         2.92111588789040    2.54226451075497    7.69909567537105
C         3.10772501717773    1.69111573406285    8.70875334723190
H         2.43542521428249    0.83733334992502    8.74831800561145
C         4.10176474256432    1.86479468716121    9.65214582981996
H         4.21581909183604    1.15169448446781   10.45438250618032
C         4.95396406118915    2.96402739002897    9.56387635416868
C         4.74479434461009    3.84347828551383    8.50635394802723
H         5.37148404478750    4.71417535228647    8.38771889138032
C         3.72436208524441    3.60040380667494    7.60488410100954
H         3.53930654280994    4.27416071021912    6.77095886284219
C         6.04787633976839    3.17076604226326   10.55886399443853
H         6.51057027952347    4.14605979158737   10.43497618378437
H         6.81340365056511    2.40535444902405   10.43300268052657
H         5.66097022827631    3.08702475751245   11.57270478992561

