70
CSD_code = SOHTEQ | q = 0 | S = 0 | Stoichiometry = C38H27N2OPPd | MND = 4
C         4.70743110340554   -2.41603215290066    6.84918855985919
H         4.29279801143204   -3.05367402515872    7.61653304868483
Pd        4.02371135691009    3.68097250225977    4.62563201911429
P         4.94120297101086    4.60982854802002    2.79924776914157
N         3.18066190796034    2.81370586386282    6.16504273850268
O         2.74531100359818    5.31104447001555    5.32161642340728
N         3.45537404095109    1.59250152365749    6.41362640823552
C         4.32766479348924    6.19030627461849    2.13337299864129
C         4.92585478087369    1.87769971269284    4.53963427087598
C         2.29271486041045    3.55981968993846    6.86977337802172
C         2.10863817838654    4.88608811043298    6.33857352998874
C         6.71029881055628    4.98702714073110    2.99709485324240
C         4.39299821228993    1.06472160262479    5.55737379049224
C         4.28001683109891   -1.12304611285958    6.72336117696232
C         7.29474720274396    4.57989559533323    4.19410554740893
C         4.15501939911567    7.21291171465637    3.06276004520439
H         4.35284892887613    7.01078878872502    4.10869903524008
C         4.75321708995918    3.46148750873202    1.39887850475770
C         7.46041606163043    5.69683671637858    2.06545700554720
H         6.99327063261069    6.06030563947959    1.16029401892833
C         4.81258894664285   -0.28463549780100    5.72562972579725
C        -0.05819204222336    3.65008797949776    9.77779628234900
H        -0.74872677109129    4.35480679606199   10.22010490737372
C         5.91157030674426    1.33677872907364    3.70933512823213
H         6.35302713976757    1.95324542221819    2.93281948698597
C         4.03854612015720    6.41387801562290    0.79295142493130
H         4.15430749867672    5.61641053431063    0.07168208969112
C         1.56933839417282    3.13365153961678    8.03598289879035
C         1.01197673198794    1.51400502727801    9.74527685371461
H         1.15118033756344    0.53444513399090   10.17968711951494
C         5.80270121422167   -0.79951948999130    4.84851629703132
C         0.65781648296547    4.03984888395927    8.63669826599892
C         5.63706875825525    3.29710075080721    0.34090609476583
H         6.54284532990558    3.88447480184354    0.29334113341733
C         6.34085346195873    0.03823122180981    3.85384693020662
H         7.10322391197505   -0.35794437828600    3.19694029091388
C         4.21299871596792    1.59170650207142   -0.57304420474990
H         4.00735083024132    0.86178396163980   -1.34179439614477
C         6.22122292465385   -2.13823097152083    5.00635815891043
H         6.97518377829424   -2.52567638443247    4.33527645675229
C         1.16524972756877    5.74611860475017    6.98898166783734
H         1.03256682034011    6.73208616757143    6.56810847161541
C         1.72493674289384    1.86818490231429    8.62520402854801
H         2.41981308673602    1.17319338417229    8.18504873159188
C         3.43257426477419    8.67921111945533    1.31162003477633
H         3.08195210189576    9.64840518537022    0.98851308003625
C         8.62985433413482    4.84434049505212    4.43880701205234
H         9.08428658225607    4.52623245107384    5.36527192533712
C         8.79646965335585    5.95542348995215    2.31396244215318
H         9.38242934931068    6.50186840796088    1.58928696355271
C         3.59263679476879    7.66022769480667    0.38747387144705
H         3.36672155855412    7.83530488234665   -0.65454735754214
C         3.71102404762852    8.45440639076420    2.65128561698715
H         3.57431539159183    9.24695530565770    3.37213353826310
C         3.60361885687776    2.67533684231015    1.47233725197895
H         2.93418121864143    2.79796729336521    2.33251514701009
C         3.33120197248832    1.74733711785963    0.48624980491940
H         2.44186283758555    1.13770811646889    0.54349262768178
C         5.36284156410524    2.36042461617422   -0.64178837275384
H         6.05238241913066    2.22752146446463   -1.46273087949709
C         9.38245383921560    5.52325761072668    3.49340825180033
H        10.42595906416414    5.72834364733292    3.68120967416954
C         0.47837879944280    5.33624104555294    8.07993148232864
H        -0.22956835742138    5.99943219358847    8.55849241175429
C         5.68648176311398   -2.92845465312940    5.98402843650329
H         6.01228508852568   -3.95241632468988    6.09787637864529
C         0.11084072484743    2.40447978443342   10.32842295390972
H        -0.44539585210022    2.11405959425080   11.20758413366749
H         6.67780687564273    4.05629502292309    4.93176870566637
H         3.52486048180070   -0.72452954183548    7.38237589889197

