138
CSD_code = SOJCAX | q = 0 | S = 0 | Stoichiometry = C57H73N2O3ScSi2 | MND = 5
Sc        4.03822805834225    2.56908418070880   13.18272630318467
Si        2.24994390224054    4.45172810100458   11.19861875405141
H         0.86642256927318    3.99845246745163   10.85542344627144
Si        4.21046300255032    2.49636698801160    9.98004003696370
H         4.43627985805461    1.02499350075971   10.21399261572533
N         3.30474555226731    3.11167877022618   11.29805310181904
C         2.19403816043795    5.19693390544033   12.96820112142718
H         2.76744769213602    4.54770729992964   13.65315153321984
H         1.17995863436029    5.27893258994171   13.34632471241177
H         2.63302309821265    6.18964282613432   13.00179992541182
C         2.69122636712841    5.86685518131242   10.00310202950646
H         3.71510862526984    6.20093008000827   10.14473944900668
H         2.03874431601940    6.72383741212665   10.13872780139194
H         2.59108472414022    5.54003226924427    8.97447601455102
C         5.93356060866029    3.30109459343509    9.82784876477158
H         5.87398518150934    4.26123932483911    9.32498398469296
H         6.62950907090325    2.68216657754410    9.26921060602230
H         6.35144639068208    3.47612398332338   10.81614136979705
C         3.33114044008103    2.60144753227173    8.29924527178709
H         2.28740358598287    2.32223535173905    8.38988317201296
H         3.79330564164661    1.94088413853427    7.57349576742673
H         3.36722334791529    3.60651352308694    7.89569819873251
C         1.65974373796690    0.40194942414649   12.06917029140988
H         1.66161508861308   -0.22376163886047   11.16941292462955
H         1.30639655577687    1.39858426018947   11.80857085524865
H         1.01265125812290   -0.05331602042571   12.82767252949503
O         2.97800416147226    0.55574552024785   12.56534132014642
C         3.59376757054289   -0.69731103278241   12.82919653227546
H         3.39328752593469   -1.39307279354848   12.00069047057872
H         3.18691613369568   -1.12316523345379   13.75727835269073
C         5.10295637569386   -0.46710277022625   12.92903533724140
H         5.58245067333013   -1.36550732595775   13.35379553524877
H         5.48550769087502   -0.30864665594022   11.91411609416177
N         5.42718213304228    0.72287579856338   13.71906194131232
O         5.59608022622158    3.56974040089407   13.28438892334983
C         6.58632723355174    3.49016425632300   14.15011549114004
C         7.27540996481073    2.26140886865270   14.28170574268401
C         8.23723729333158    2.08621149182505   15.25611163999267
H         8.71572360873647    1.12106140326742   15.35577751818365
C         8.53940283558602    3.09983770293459   16.15616911087065
C         7.92053934687942    4.32752226544640   15.97769849018519
H         8.14570589224784    5.13542318541483   16.65541640527388
C         6.99098825629919    4.56549517879880   14.97434005124460
C         6.83119956307239    1.10709905542742   13.42564732127771
H         7.49407288158053    0.24474550565360   13.60719386752247
H         6.88479005851295    1.38460686549750   12.36340899869890
C         9.46290092077026    2.76905069553226   17.31811512790128
C        10.89513029325457    2.67397891608978   16.77688705044303
H        11.61127309230116    2.53121969378938   17.58297475054457
H        11.14246722629320    3.60119950720184   16.26375690265466
H        10.99007814925422    1.85685485867414   16.06602788115088
C         9.43168889148325    3.82791377834083   18.42779400686452
H         8.41582316385148    3.99423822940608   18.77694476328788
H         9.84554193796052    4.77034829382380   18.07665363819862
H        10.02943738538677    3.48462363991184   19.27044755567518
C         8.95888334756307    1.46222429362206   17.91749375222987
C         7.58924384851240    1.31778809024608   18.13250360267365
H         6.92632198805462    2.13530316142871   17.88683428355358
C         7.06136342843161    0.14221283780283   18.62965230133991
H         5.99367397665625    0.04351521386462   18.76298893506939
C         7.89926265701638   -0.91511016057112   18.94433451929532
H         7.48607546973206   -1.83797130383246   19.32439262594585
C         9.26295728128500   -0.77435836820079   18.76587422752543
H         9.92814346796099   -1.58847463275599   19.01711871876224
C         9.78831895735263    0.40260594166634   18.25498214261204
H        10.85565348981327    0.47742071415332   18.11678216686032
C         6.29252132624694    5.92009957358749   14.91311696628820
C         4.96961319902337    5.74219614525654   15.67304298563712
H         5.15478788236722    5.56400757042242   16.73082950824073
H         4.44845801204002    4.86940169704879   15.26912801358380
H         4.32782463395429    6.61357782717631   15.56041350554521
C         5.98616289308386    6.37114812254295   13.47356258442768
H         5.57951730954589    7.38195914956801   13.49280790987090
H         5.26606059607557    5.70346817014820   13.00383418190418
H         6.89367757670547    6.37788089418978   12.87447411042814
C         7.17934752421232    7.00591260429055   15.50124091781489
C         6.74701838825236    7.90314338572434   16.46772788803820
H         5.75062555438869    7.83256297300574   16.87411189766945
C         7.58366727132138    8.90597175251602   16.93196643400695
H         7.22525498561539    9.59194255051225   17.68637462736216
C         8.86793236445399    9.03251332732453   16.43734615283746
H         9.51894089599741    9.81393796505039   16.80120707965773
C         9.31141375866985    8.14614094383094   15.46929108598456
H        10.31328000455647    8.23400857961206   15.07371327506700
C         8.47502505613726    7.14915904269384   15.00717733859885
H         8.83390220756233    6.45535990888713   14.26069909164288
O         3.30773487312920    2.39746285188002   14.88681191881820
C         2.96687014695247    1.30041971214203   15.53842791079345
C         3.90534107538550    0.24838741916141   15.67054147833934
C         3.56943642893773   -0.92303142015161   16.32281966517376
H         4.31911925557586   -1.69573927297660   16.43461901155658
C         2.29792834803044   -1.12235437274984   16.84253529273941
C         1.38143491672077   -0.08954947429481   16.71727909156570
H         0.38560547701075   -0.22665498856388   17.10456996195641
C         1.69177833215470    1.12899068656061   16.13111060532093
C         5.30970924288996    0.43967717400544   15.16665678259633
H         5.73929132939451    1.29885952230120   15.69485907144696
H         5.91359903126193   -0.44801715022548   15.41852157819437
C         1.98179679694883   -2.45339912482292   17.50607239049418
C         1.82910631734220   -3.49780766560422   16.39075841821511
H         2.76603676680550   -3.63761865666932   15.85624656733928
H         1.07892983970608   -3.15395595600065   15.68057459091562
H         1.50074979702158   -4.45397914619292   16.79168340851771
C         0.68121339755794   -2.42464007129571   18.32168623581876
H         0.57358518236690   -3.36431641533850   18.86084560245534
H        -0.18359096007627   -2.30348818723825   17.67348736349487
H         0.69375943590277   -1.61549968201659   19.04718190870012
C         3.10681679410411   -2.77641173111236   18.47731405350794
C         3.51654851157563   -1.78441371011195   19.36505249834354
H         3.05112742822181   -0.81029187825060   19.31722496607562
C         4.51209833155513   -2.02220420675681   20.29274675684069
H         4.81517956277130   -1.23798435952938   20.97149773473270
C         5.12327246342785   -3.26391828268821   20.35218884803285
H         5.90119862246303   -3.45457661850691   21.07727912429623
C         4.72530130385852   -4.25757293966795   19.47753832574802
H         5.19396116368109   -5.23083122310879   19.51477689219226
C         3.72422265747469   -4.01690409606469   18.54987749565625
H         3.43414355901004   -4.81433193230430   17.88367132194436
C         0.65088740960196    2.24866308688769   16.09277860723265
C         1.25774284729942    3.58103730514936   16.57131565808909
H         0.48542347981973    4.34835703404466   16.58743880836163
H         2.05588937926987    3.89363853897574   15.90513068027779
H         1.66916796003487    3.48417851156579   17.57227595369760
C         0.19878316988588    2.41768437428299   14.63518977919560
H        -0.29354366946740    1.51543654841760   14.27748739029673
H         1.07263050611903    2.61059913736642   14.00763526881621
H        -0.48319988774643    3.25989941154622   14.53849752645009
C        -0.51116283088224    1.95527760253595   17.03140211107433
C        -1.83162767091074    1.87822350905532   16.61020789523658
H        -2.08556620201584    1.99762252518921   15.56925935682245
C        -2.85767864695538    1.64628016701575   17.51329609877704
H        -3.87669246184329    1.59234789522973   17.15733000864217
C        -2.58614101480786    1.48400037294412   18.85813592821559
H        -3.38633255735779    1.30207972884076   19.56028842989645
C        -1.27347598393697    1.55601547357213   19.29473691839548
H        -1.04406345709262    1.42798831251954   20.34296375483860
C        -0.25456237628732    1.79111942258564   18.39299648258826
H         0.76490127133661    1.82900234569519   18.74795223907021

