106
CSD_code = SOJCEB | q = 0 | S = 0 | Stoichiometry = C41H55Cl2N2O3ScSi2 | MND = 5
Sc        7.21488602347930    3.48238966201785    3.23730022830497
Si        8.63218709439003    3.00980417020619    6.12051524210096
H         8.04801848814017    3.70606918491604    7.31010921924204
Si        6.65926174437773    0.94235201839779    5.15251213218126
H         5.27192555504589    1.04917027683993    4.57628381595724
N         7.38430873033641    2.49302414372387    5.07606572014228
C         9.87454180432410    1.72540373532060    6.77820249357539
H         9.39049000924921    1.04761257057264    7.47193454432956
H        10.69818791861674    2.19826563053580    7.30404314652104
H        10.29237283376344    1.12926127250272    5.97201744103903
C         9.63668412702403    4.31169717631486    5.13025735652589
H        10.57201124054472    3.90000015500746    4.76242668527137
H         9.88604389116226    5.17120261444722    5.74373480168580
H         9.05458556405542    4.66736188959927    4.26101138772052
C         6.41248170607745    0.28362308241433    6.91780696777477
H         7.34199609630604   -0.08555165607099    7.33491734203303
H         5.69877032537777   -0.53300462879767    6.93603039043200
H         6.04623119389143    1.06376255539948    7.57573898104872
C         7.58696958477765   -0.37293928446670    4.12910030542218
H         7.93603512017435    0.05823010996427    3.19443779623699
H         6.96159338134994   -1.22944367078099    3.89534873563366
H         8.45745233214404   -0.74030796223112    4.66351158921411
N         5.59311010677490    2.97087377034657    1.56712455724325
C         4.26196418260688    2.71080284713678    2.12359740370476
H         4.26684595329911    1.69422462696886    2.53188869821349
H         3.48809529664346    2.77439028240975    1.33987833839935
C         3.90427209049401    3.66725497168585    3.26453501274779
H         3.58677286917865    4.64941072932275    2.88700653062061
H         3.08062433068298    3.22818379701379    3.84684812034337
O         5.05038154888310    3.81865088236877    4.09112161274584
C         4.71240410733769    4.29476657748530    5.38244774681768
H         4.29001139850949    5.30447605095967    5.32426009965414
H         5.63226654614802    4.29424796501233    5.96565422715928
H         3.98799956532455    3.62439497489996    5.85859242936670
O         7.21524611017935    5.25062898518377    2.63647545251469
C         6.18105610968394    5.96222994072598    2.23460180527098
C         5.27878713798870    5.44735892731419    1.27609588733733
C         4.17634393548571    6.18933821567060    0.88055089451352
H         3.50034940242027    5.77716960495400    0.14226430342222
C         3.92579000131510    7.44785286299573    1.40211292856209
C         4.83883523514305    7.97357344544810    2.30868000519175
H         4.65703140580241    8.96685231869890    2.68795964463211
C         5.96110577082072    7.27739567355110    2.71791538447820
C         5.55597690868713    4.11591528109972    0.63225603575808
H         4.80109651462463    3.92421855091745   -0.14922615257465
H         6.54209793444344    4.16459507831387    0.15171528100877
C         2.70472300523595    8.22074937937549    0.99840730510383
H         2.45938152182749    8.03695835090078   -0.04541203926439
H         2.85767317329627    9.28790802960534    1.13934742787701
H         1.84670943216776    7.92031197710665    1.60215233754443
C         6.99258179949404    7.87357917951485    3.66658968831649
C         6.85129612648978    7.16806954201019    5.02410453100974
H         5.81955879750265    7.25374983964796    5.36113511455061
H         7.48592336871911    7.63079275237188    5.77582025667443
H         7.10929479387362    6.11053980683447    4.93529034744921
C         6.80529022450278    9.38337441084723    3.88703133948664
H         6.80295088438126    9.91642427802295    2.93953028555029
H         7.63207863947655    9.76140431071258    4.48538487708820
H         5.87981947362599    9.59003907807151    4.41949371745137
C         8.37359291354240    7.71176446356201    3.05231852644968
C         8.53269829297392    7.88627400484044    1.68050169938769
H         7.66617585285150    8.07045105120527    1.06274901941060
C         9.77767267718870    7.81940368288170    1.08541423920607
H         9.88330756330702    7.94960981966790    0.01936609321095
C        10.89222069121546    7.58778104515037    1.87259999328978
C        10.76622757580062    7.43049768502370    3.24018500539317
H        11.64040839910425    7.25906771140219    3.84928429083457
C         9.51133234693609    7.49965535258958    3.81950343301933
H         9.43659633541205    7.38970839190620    4.88902500839141
Cl       12.45813897963967    7.50367248293336    1.13918992530653
O         8.31361056559679    2.44204204401503    2.18521271321620
C         8.46579360623959    2.26275108858219    0.88895888834590
C         9.71968092154198    2.38639612102295    0.23971728425132
C         9.77151222071777    2.23039124923636   -1.13423572195989
H        10.71286657601621    2.37073954681937   -1.64519441532014
C         8.65821216290208    1.90296723789665   -1.90091363634745
C         7.44218022615909    1.74891705956496   -1.25833585605789
H         6.56014111852008    1.49237411941715   -1.83047962317606
C         7.33565200474662    1.92763058863694    0.11110916678507
C         6.01284872246312    1.76404071200789    0.81267002208485
H         5.24015766547899    1.51391533347624    0.06621408887855
H         6.08922366509305    0.93836619834353    1.53453963919311
C         8.79143063957347    1.72969404924629   -3.38474496188151
H         7.82521245959615    1.52958270478554   -3.84104503556302
H         9.46000012359016    0.89993184832065   -3.61182168835013
H         9.21212768000136    2.62645836887764   -3.83759428427178
C        10.95521405136763    2.80278873940102    1.03270788714723
C        10.74133734096906    4.27188340060991    1.42357592001914
H        11.53910980068679    4.62211698735174    2.07433583812412
H         9.79029373718157    4.37575174516338    1.95577717782178
H        10.69665332323694    4.90010431577828    0.53653977345146
C        11.12578246671754    1.96498845231154    2.31468084722079
H        11.16417358766465    0.90407022045725    2.08050940758565
H        10.29411731926003    2.13810119428398    2.99492901492156
H        12.05739549158556    2.24328393531342    2.80587136756061
C        12.22781107372290    2.59631474075895    0.22656721180283
C        12.53223154420523    1.31597759437818   -0.23549926197478
H        11.83605909247967    0.50942495279778   -0.06097264011304
C        13.69448560402977    1.05401944272166   -0.93327005257727
H        13.91150943466059    0.05775895651669   -1.28613994146862
C        14.58426239693083    2.08744005518105   -1.17767448311470
C        14.30967662831956    3.36644404821260   -0.73187374252768
H        15.00483832220223    4.16852143478177   -0.92580514276913
C        13.13736633025966    3.61249068950372   -0.03518001262714
H        12.95027966324056    4.61966805202985    0.29790949176361
Cl       16.04730033744061    1.77247673966788   -2.05002023231458

