111
CSD_code = SOJDIG | q = 0 | S = 0 | Stoichiometry = C33H53CuN12O12 | MND = 5
C        -2.73634304494313    7.83096429159947   15.01425559095174
H        -3.44658059215776    8.62201349659034   15.30623890536823
H        -3.30883480191710    7.00237805741533   14.58189285351201
C        -1.41446307803883    6.11512655532655   16.18297038415635
H        -1.94010998190435    5.42799510623063   15.51501036647872
H        -1.43184347977779    5.70272596599769   17.20776257389774
C        -1.46400572954960    8.33894910722779   17.06210466320287
H        -1.56060741093953    7.98432648742311   18.09473413981077
H        -1.99383275687708    9.29024212460424   16.98188523428422
C         0.02252424998474    8.50015741393249   16.73225785872702
H         0.15823207510284    8.99324539027643   15.77069440842693
H         0.50924075965639    9.09948143279588   17.50222424212840
C         0.67638625222019    7.12672144148971   16.67251109238029
H         1.71300600963147    7.20969067350307   16.35444612306200
H         0.67081124529564    6.66816109553856   17.67165402823325
C         0.67331585175067    4.97614243128215   15.60584107254759
H        -0.05945357419012    4.18090436264974   15.46095885948700
H         1.23833438405554    4.75518102753334   16.51565517781845
C         1.63983637311925    5.01290069808053   14.42456243546177
H         2.30885015989270    5.86532227780642   14.55247855604613
H         2.24594754114854    4.09956112549790   14.40446593103027
C         1.80437356009218    5.65831975062217   12.08836251655728
H         2.29295009166256    6.57789427947453   12.41442826715693
H         2.57046313405641    4.89236925877199   11.89603749585657
C         0.41680578204431    7.14849256539973   10.70945672108187
H         0.14745516617343    7.23891747891160    9.64440322765418
H         1.10778282175638    7.95870770653098   10.95842342659925
C         0.44104805639122    4.71346001932697   10.37572410829648
H         1.22258907540524    4.00019807477920   10.09265539384183
H        -0.13533035863323    4.96150910343501    9.48151030240906
C        -0.44271232974415    4.06050466040284   11.44265434933817
H        -1.32952594831446    4.66501054710557   11.64151740005938
H        -0.77275184016173    3.07970574017838   11.09707465582573
C         0.35580240935089    3.90298052690744   12.73132356830261
H        -0.29155805252777    3.50689797366085   13.51470959812165
H         1.17946849023842    3.19286831494058   12.57058007208975
C        -1.39764242339781    8.62342220891758   11.56948229018420
H        -0.62147647020815    9.36179764000498   11.78849370094060
C        -2.06774039159925    8.96662220142222   10.23241272942786
H        -1.32178375776016    8.96172542227284    9.43622152274026
H        -2.81668743887111    8.20412019116400    9.99982633286473
C        -2.73766252378888   10.33524385244940   10.28922402644418
H        -1.97984168052352   11.09921420323826   10.47356925800976
H        -3.21025748347284   10.55536740455983    9.33054821377328
C        -3.77617585239856   10.37064943592027   11.40371983050394
H        -4.23586014754165   11.35887748499590   11.45558049443625
H        -4.56545515700462    9.64608917510270   11.19153497417208
C        -3.12289103719144   10.03456857969640   12.73971814448046
H        -3.87518944110370   10.05138170561157   13.53061036212433
H        -2.36776571433655   10.78929800812624   12.97311270256648
C        -2.44739071835987    8.65837397501714   12.69914064380462
H        -3.20290461361831    7.89108079887888   12.48693203275974
C         4.36987535914936    7.53227348995912   14.35223203604656
C         5.20781479770517    5.63543662190245   15.21346194512110
C         5.02388967879166    5.87505771798726   12.98785361758232
C         5.52830194994885    5.61419115088044   17.57441587593868
H         6.23805666732574    6.44691427522844   17.57896202474828
H         5.78885975526072    4.90822952171761   18.36503629910402
C         4.10032973378837    6.16075086206737   17.84845565750746
C         5.81957549153096    3.52537676094362   16.18317960140954
H         6.35689592611532    3.17440006074618   17.06851060541169
H         6.43579890222029    3.33489298338664   15.30011594912406
C         4.53024983471134    2.68382068734639   16.05394321176031
C         3.68534858051592    9.26673551755500   15.88807813545889
H         3.31752464255254    8.50457610653660   16.57496538053794
H         3.00147082718248   10.11702698643935   15.87997335367428
C         5.08789011402376    9.73709323678040   16.32972313327356
C         3.46159494480770    9.55866446324444   13.42440641886727
H         4.00934599986827    9.15459973492555   12.56250121140233
H         3.80264647984838   10.58427916400677   13.61623649273044
C         1.97813290720035    9.54615954017918   13.10730417345507
C         4.97214482249315    6.16265373719042   10.58169026630064
H         4.42593887741324    7.05732372199383   10.88678314263367
H         4.36368470242052    5.62272325432834    9.84633264307856
C         6.26793037320685    6.58635519781036    9.91090366670162
C         5.74301929489170    4.03537695371546   11.63638053549576
H         6.80546698170351    4.01447115659570   11.89542480932346
H         5.61398358586702    3.68783364515455   10.60928975451499
C         4.98170910816797    3.10140245723706   12.58098292438610
Cu       -0.14153710863716    6.97718964882084   13.68998739199558
N        -1.81953929531310    8.30774885824087   13.96707533670181
N        -0.02768774729443    6.26076142678788   15.72570377328627
N         0.91448059202031    5.18706669350176   13.16256185005867
N        -0.76145605943093    7.31144347320271   11.57292296638698
N        -2.12760695588038    7.36140130718644   16.21576814082894
N         1.11319835707697    5.90811399224802   10.85272990807140
N         4.51140715274332    7.10667707053119   13.09158874023463
N         4.74260238860479    6.86699799408402   15.43274522144496
N         5.34343500569784    5.08152179334587   14.00356520715602
N         5.57217894029146    4.93565739465941   16.29823211395409
N         3.76109594392741    8.72434795852660   14.54826860943140
N         5.19044549559247    5.36349458864129   11.74900299744546
O         3.15865099327737    5.35815420460162   17.65053387188099
O         3.97523583905793    7.32292472144049   18.25402677468940
O         3.45520984014651    3.10811526575221   16.62018178223395
H         3.43883590555070    4.09161896694743   17.08393158498342
O         4.57115929938771    1.63011898520768   15.44092235052501
O         5.67191691235254   10.57476146812320   15.68438826279453
O         5.58208686483184    9.17499880749029   17.39907007983711
H         4.98754824286480    8.44180140567037   17.79072226257881
O         1.61958895132266   10.30827681073242   12.04908271670050
H         2.37082991426881   10.77884054326305   11.66297767932475
O         1.14320076645585    8.92886506095418   13.71663324252278
O         6.03104685611658    7.45748716995761    8.91873858669936
H         6.86451499755034    7.71426780744103    8.49202396028218
O         7.36701112195300    6.20654112562907   10.19501626854189
O         3.77628325190483    3.10479102785271   12.66472031869477
O         5.77905247166886    2.25604164439158   13.19185151586228
H         5.30441647909419    1.76818247466452   13.92329026616978
H        -1.45573532778322    6.61439444983464   11.31725820101010
H        -1.29809608630803    9.10991800378145   14.30854229264648

