33
CSD_code = SOJLAE | q = 1 | S = 0 | Stoichiometry = C7H18CoN4O3(1+) | MND = 6
Co        0.37662317044678    0.03430386632339   -0.37369195641466
C         0.10201855237884    2.18019155750279   -2.28398325353309
C        -0.08260791107930    0.84278874749550   -2.99959382877503
C        -2.06099634246576    0.00324566097972   -1.76830677389443
C        -2.32059965448474   -0.33904545071923   -0.30197308632085
C        -1.20697763136661    0.01138592602355    1.89201039069703
C         0.12321862801999    0.57382726406911    2.38900697659497
C         1.49986543539337   -1.91192670343538   -0.78088558172586
N         0.83656090508668    1.91825863748540   -1.03163034672232
N        -0.60915073799335   -0.13052188600597   -2.03096055505616
N        -1.34933620672372    0.43021286182080    0.48984879107981
N         1.16261274694351    0.13305713901501    1.43835110105195
O         1.87235325436885   -0.68176406734910   -1.09955176579244
O         0.33076872995324   -1.76367740764553   -0.15598790441482
O         2.06920024830985   -2.93392979788452   -1.00272842381884
H        -0.86442973420407    2.62526386403300   -2.03546338370622
H         0.63742494442410    2.87893236294347   -2.93354190953606
H         0.89134746718529    0.48201641748090   -3.33808761647123
H        -0.74471867683800    0.94672985865886   -3.86451378841581
H        -2.36143144657857    1.03513036917118   -1.96300380221452
H        -2.64169921563569   -0.65052267023703   -2.42304248027261
H        -2.12060940919368   -1.39948363006101   -0.13490024867184
H        -3.35514531921642   -0.11841365214863   -0.02107393112446
H        -2.04118154359535    0.34968686306196    2.51349932512990
H        -1.16440741873628   -1.07966218209561    1.91191811900014
H         0.33194679793657    0.22706163039852    3.40507461952913
H         0.08965554727162    1.66694064766719    2.39691080996338
H         1.81549023728343    1.75151836903415   -1.27756784174536
H         0.82717573930705    2.75479952479644   -0.45104051096983
H        -0.43763949975827   -1.07177492390350   -2.39070568275334
H        -1.63422554183238    1.41035582333684    0.48011380971724
H         2.03111359405493    0.64921547055887    1.58293486849174
H         1.38618029133771   -0.84790049037105    1.63706586109464

