118
CSD_code = SOJMIQ | q = 0 | S = 0 | Stoichiometry = C50H64BCoP2 | MND = 8
C         6.40622528143334    5.25778116001682    6.54944221763117
H         5.43322158443780    5.66206821104313    6.81133507449338
C         3.27843970995376   10.70179825880181    8.59255488453862
H         3.90035726257189   11.15589008281579    7.80904970825884
C         8.87986932301582    4.25259249286543    5.90533325165382
H         9.85434745005632    3.86081667249989    5.64409481134301
C         8.45103962095512    4.20574722277944    7.22046560380415
H         9.08130975244887    3.77872765376514    7.98937934057639
C         7.20308340875919    4.71262881691362    7.53993260893974
H         6.85631412858848    4.67600743503420    8.56603607454435
C         3.93528213537876   11.00550206955440    9.94248099364820
H         4.22611607916464   12.05527477910974   10.00215667452758
H         3.24232501069294   10.80672463883461   10.76134108276539
C         5.15679346231783   10.10346231117329   10.04877749058185
H         5.59821604589571   10.14356871644659   11.04567005379851
H         5.90428704737867   10.44293410781280    9.33248100554907
C         4.70408947688430    8.68145231906808    9.71272087627788
H         4.10339341321224    8.30811807628846   10.55241724883374
C         1.85147184054771   11.22984165042737    8.42375201476587
H         1.18512976676637   10.68216022224167    9.09914678002977
C         1.76380639131945   12.71792497797205    8.76461393560046
H         1.96484226389840   12.89758184856645    9.81712554918276
H         2.47687055856355   13.28794509016372    8.17247506073230
H         0.76512786107140   13.08781150196329    8.54396228446689
C         1.38609477866852   11.00095278985904    6.99031723077509
H         0.32726285848143   11.22500049606137    6.88946513726495
H         1.93767520747544   11.64228586734334    6.30697740386611
H         1.55524738513134    9.96149735543162    6.70256155259376
C         5.82180533439461    7.65242003225070    9.45711423644257
H         5.44963654278432    6.94200054419157    8.71152393488753
C         7.11097763313795    8.25010448225842    8.90297712429317
H         7.77248078053952    7.44513500731323    8.59110373604080
H         6.91030484071433    8.87116199330291    8.03612720625207
H         7.62592820317212    8.84361159453731    9.65553371913497
C         6.12854878261288    6.88598794309447   10.74317306346667
H         5.25141945157357    6.34674155551201   11.09477950783880
H         6.92433844698036    6.16643860415504   10.56946258491864
H         6.45520825235071    7.56804909393363   11.52608150788920
C         1.96148669777221    8.10828716409677    9.03816883803406
C         1.46519190593319    8.43352443626880   10.29550853218148
H         1.97626277476801    9.15533864396932   10.91468114082432
C         0.31325954997081    7.83471685736251   10.77441481774235
H        -0.06535967866046    8.10074728717916   11.75015700929589
C        -0.35082789814483    6.89548836046979   10.00388426799974
H        -1.24872764808355    6.42616555687714   10.37744059450731
C         0.14292301528254    6.55099949706314    8.75829352169992
H        -0.37874596919660    5.80917134761732    8.17136781466549
C         1.29550748245213    7.15122905118343    8.26538479515345
C         0.57934047620416    6.55522641418123    5.51342614110056
H        -0.27653970796838    6.27036311530333    6.13719425982599
C         0.95836045929546    5.32494694859704    4.69046178712673
H         0.13421720959959    4.98900198008146    4.06162407389779
H         1.82267253098865    5.52191259656843    4.05551923080172
C         1.32873802097448    4.26742489722395    5.71851707506895
H         1.73742165517963    3.38469859642336    5.22889919622628
H         0.43776629580890    3.97359925669863    6.28033142536278
C         2.37086484279425    4.87968425809801    6.66350577036453
H         3.35674374760315    4.78002911398827    6.19075509645439
C         0.21037982324465    7.84660615152385    4.77129829766838
H         1.10607755341860    8.47126663328765    4.69936961877779
C        -0.83972873317801    8.60622685608549    5.58092118640742
H        -0.51520536592365    8.72621029666919    6.61272537539545
H        -1.01514558112690    9.59110445229894    5.15470032780623
H        -1.78287090057441    8.06243713004533    5.57846149221737
C        -0.30847206841727    7.59900554536170    3.35663772541170
H         0.44613401847637    7.12140314594676    2.73840820225161
H        -1.19488570868746    6.96872222656216    3.37475063552550
H        -0.57780470893569    8.54646023585432    2.89428845982547
C         2.41455349784576    4.19695571064589    8.03586857459236
H         1.45092258679326    4.34051062494152    8.53846139944107
C         3.51169851557986    4.78593119668101    8.91401981441351
H         3.44663751155946    5.87387992302331    8.93085658701072
H         3.42113457291163    4.41785271178478    9.93421073728142
H         4.48631653157346    4.50019162763074    8.53068226455360
C         2.65589656063921    2.69538272098042    7.87239392568472
H         1.82449305458662    2.20882177125528    7.37058860130736
H         3.55917315506651    2.52383228263516    7.29238071996420
H         2.78068445346000    2.23294987626047    8.84922191040688
C         5.10715087701536    7.27317163576710    4.63155313452574
C         3.88832592655111    7.78483863082854    4.12369817632999
H         3.30880858210363    7.15408884404402    3.46184907486698
C         3.53656604006484    9.14585650594156    4.20762314949439
H         2.73387004979118    9.54294944849082    3.59870766888054
C         4.27214569091209    9.98553395689726    5.03083580878273
H         4.05644820987869   11.04469009410815    5.08647688346479
C         5.36507973076962    9.44513283669518    5.73592678580796
H         5.96576219674450   10.11248072568401    6.34710588206273
C         5.81994123155637    8.14830995938576    5.47304972462597
H         6.76943463724208    7.82520542945038    5.87716833618777
C         4.73819859874441    4.79204438463418    3.61449000235740
C         4.56332816656446    3.58910010520283    4.29637021639870
H         5.15609155577504    3.39537423942788    5.18062865770395
C         3.68293535520645    2.61363516931421    3.85784389237180
H         3.59148280450773    1.68209218886714    4.40342595694931
C         2.93090551990451    2.81793735085474    2.71368831704792
H         2.24230393862606    2.05960460675367    2.36581557348727
C         3.08821076207408    3.99922209094985    2.00924385531520
H         2.52081888638521    4.16494549972287    1.10201331217912
C         3.98301525130043    4.95797156607981    2.45160130325623
H         4.12599793136540    5.84912389296718    1.85292969220077
C         6.67385562752626    6.38486004102964    2.77538445000321
C         7.02329322300653    5.43042221786229    1.81887556782520
H         6.68720453527804    4.41074999758117    1.94901992422774
C         7.78785779426701    5.74604622782418    0.71086542753791
H         8.04120163452918    4.97704608755675   -0.00738075558747
C         8.23092287774895    7.04334652851427    0.51725091342696
H         8.82581377694953    7.29736671174790   -0.34959395583682
C         7.90326177601557    8.00918734693096    1.45094392642127
H         8.24403392171725    9.02820182203612    1.31579051973032
C         7.14097171147806    7.67802887145137    2.55873406520150
H         6.91214914620440    8.46132700639680    3.27072476493358
C         6.80861395293046    5.31536043229519    5.21558511245843
C         8.06747116997211    4.79570504047292    4.92487310510297
H         8.42362951521318    4.81979568434575    3.90461605779913
B         5.81306210257533    5.91876825279200    4.08402831802008
Co        3.67816028007044    8.13164487560518    6.26679948813550
P         3.46996522360488    8.85625512244538    8.30969701624149
P         2.04847788360874    6.72962439690750    6.65171683357820

