85
CSD_code = SOJMAG | q = 0 | S = 0 | Stoichiometry = C31H50OP2Ru | MND = 7
C         7.09601625136456    1.92878795054624    2.37963583717397
H         8.10052400353654    2.29619751429348    2.15382395600872
C         7.06349003940293    0.56314060476570    3.07176091772780
H         7.67202472674775   -0.14777185725708    2.49532935133659
H         7.43245421381732    0.56098490276257    4.09474278434721
C         5.59751255436495    0.19395696305015    2.94165195476669
H         5.34173556993541   -0.84460358577092    3.15409283420599
C         5.08159319155785    0.85589366960040    1.78444558244834
H         4.43808590334822    0.32488024802239    1.08511415425893
C         6.22851381280582    1.62600271092099    1.15258077367662
H         5.92419653422528    2.50415562405524    0.58231347190336
H         6.77813978604365    0.96605205809201    0.46668905550117
C         6.07889033161389    4.60893023776556    2.30254754159982
H         5.59384119739570    4.29062984961604    1.37528934634485
C         5.28350695033348    5.80186360467532    2.86507039440754
H         5.24710732892069    5.76409288558690    3.95238670151931
H         4.25894483429374    5.81319906049555    2.49529770735321
C         6.06720460120657    7.03455238755314    2.41951562076117
H         5.82966457513638    7.27626539808633    1.38185595841239
H         5.85400686200850    7.90812745721242    3.03433784328190
C         7.51773166746763    6.57796484162810    2.52378901339774
H         8.20326122461118    7.22072726902600    1.97254864558259
H         7.82360508891334    6.56974787700090    3.57153574693667
C         7.48415959481627    5.15505271194512    1.96540515146914
H         8.28752399486589    4.54140897817877    2.37289766591258
H         7.61436267467411    5.18070817810583    0.88212633571878
C         7.08996880776952    3.66546716711766    4.82412563992237
H         7.85492919683148    4.34324031174014    4.43251502518829
C         6.23310509705719    4.40517155783928    5.87657560885326
H         6.35058218997121    5.48532340320738    5.78514213562444
H         5.17438365568293    4.16019765865970    5.74374587610887
C         6.72414360822312    3.92768598039553    7.25324929557485
H         6.82929512945518    4.75181227550021    7.95788542382832
H         6.01902567300494    3.20991072258744    7.67132143776026
C         8.05067663627234    3.22817627915416    6.97073975109796
H         8.31937316699423    2.51228506150019    7.74616506137974
H         8.85733778100030    3.95875238224490    6.87776069490821
C         7.78770053142853    2.56263890109522    5.62482620832071
H         7.10262411306156    1.72653364005512    5.77857287339916
H         8.69763739367398    2.20601940522637    5.14261601470271
C         2.94052251488632    2.92084082407367    2.28494021469759
H         3.41579165012032    3.59630548735438    1.57567670239923
C         1.65283003287608    2.27059631785501    1.80794120150418
H         1.78521318410301    1.53665097404090    1.01242125573425
H         0.97007366189405    3.04482820422472    1.43033775824754
C         1.10635511078925    1.69433172643146    3.11985511908124
H         0.06801456092339    1.35591475755090    3.08022838047264
C         1.35142364360994    2.87901828031205    4.05770614441530
H         0.63915753379391    3.68173880871508    3.82040747781706
H         1.25158932888104    2.65015377005984    5.11644786369027
C         2.74776315317824    3.30541318758094    3.64626376708391
H         3.08584638318009    4.27354839533027    4.01575102223495
C         1.67531266002433   -0.54984336922699    5.03179602036641
H         0.84989178464429   -1.18239172309977    4.68808372563983
C         1.16910438571253    0.31711402637205    6.18727440472287
H         1.86661651049172    1.13673743526440    6.36857388929238
H         0.17244754473542    0.71922007030916    6.00630328482282
C         1.22353745819842   -0.63465879957125    7.37661151987934
H         1.12921531036293   -0.11842987997257    8.33089661755591
H         0.42473464006048   -1.37592481538786    7.30238109007077
C         2.58762418154056   -1.29702331369920    7.20094190232419
H         2.65098392487986   -2.25971679257789    7.70677913568171
H         3.36027809493281   -0.64626902203732    7.60948685430668
C         2.76589299294629   -1.43198533338269    5.67924670008074
H         2.66146717493260   -2.47254526760092    5.37245295511503
H         3.75995524556676   -1.08409346256942    5.37976884949285
C         2.00309026936284   -0.86321806173936    2.19416801377625
H         2.40431028492473   -0.39385780830505    1.29162976147718
C         2.72122302753361   -2.21527702033892    2.39082985221967
H         3.33559648093511   -2.43643923199027    1.51604410678329
H         3.37710681791880   -2.20939087148872    3.25939084975890
C         1.60838580984530   -3.25557632790846    2.51057411180195
H         1.93249955455274   -4.24499925064757    2.19020664457121
H         1.26087989753539   -3.32766969135896    3.54241340580066
C         0.49952254051319   -2.68659902204825    1.63180170250333
H        -0.47006784121036   -3.14464349418923    1.82479601451825
H         0.74900343901352   -2.83765703773899    0.58004727828713
C         0.51694830730909   -1.19584475992328    1.96577758728329
H        -0.06943875321478   -1.01940664407362    2.86944458815263
H         0.08561551067536   -0.59069525216832    1.16888400395897
C         4.41843120555016    1.53318391716747    5.43196355222650
O         4.53568848817881    1.42959284658477    6.57977548580996
P         6.04608432448233    3.08439991845563    3.39038140222933
P         2.34179668607520    0.37604041102659    3.55609359206711
Ru        4.20930078889640    1.71506460810490    3.59157879738454

