41
CSD_code = SOJNOV | q = 0 | S = 0 | Stoichiometry = C16H19ClN2O2Pd | MND = 4
Pd        5.31339030713438    0.78432029097214   13.24927910053890
Cl        6.51943805142736    0.37384885882806   15.15000760805266
O         6.52599982399016    3.83348623405396   10.79039319515124
O         2.04277596798353   -1.56149755072077   12.46592084837944
N         6.36176053118564    2.36046153387841   12.45660604451092
N         3.85389815302246   -0.65085146700312   13.39506840121954
C         4.29885008720008    1.13123336050216   11.65139191288078
C         4.69259782303345    2.16398922460417   10.79757901802528
C         3.95918951242057    2.41691427791317    9.64131227508857
C         2.84732826467260    1.62845322885388    9.36808871335798
C         2.44373630695937    0.59719235393420   10.20845270231632
C         3.17979272084668    0.34674056341883   11.36357335244228
C         5.87615788896065    2.80590513029149   11.34063897223382
C         7.62603571878890    4.14653254219525   11.64974490858449
C         7.53527197216232    3.13718231537420   12.82786698264615
C         7.27623740601011    3.81180964109883   14.17496553278627
C         8.74330236769838    2.20454104660625   12.91202603240984
C         3.00794408986786   -0.64136403862121   12.41331799415737
C         2.24803999291319   -2.32108979742918   13.66072838676695
C         3.50891373883981   -1.70946586849564   14.33237170248064
C         3.21792446624543   -1.08779473617108   15.69818285524763
C         4.67613688766661   -2.69252967166381   14.42163489021561
H         4.24748209297090    3.21091166855967    8.96837686250050
H         2.27721191287418    1.82397358980557    8.47192380834108
H         1.57495062256565    0.00213581364867    9.96875869602394
H         8.55038231568784    4.03962955459992   11.07598585158061
H         7.52166201392842    5.18443472409790   11.97631920630382
H         8.14810046342335    4.37861494543923   14.49058813286631
H         6.41745682209153    4.47843618448731   14.10977123776197
H         7.06421555695215    3.04107417503495   14.91652013734771
H         8.53729526543736    1.43182066092222   13.65307322585975
H         8.92457090514922    1.72604798900832   11.95065663436309
H         9.63002418436942    2.75697046007088   13.21129349995469
H         1.35440003939677   -2.22853580516430   14.28336966614170
H         2.38693813259322   -3.36874567814190   13.38162181058376
H         2.97828560208391   -1.86003189868844   16.42432756328948
H         4.10373608841849   -0.54674691873291   16.03181880439274
H         2.38681203972436   -0.38729204702216   15.62984369378149
H         4.45689398590378   -3.47959262552361   15.13827718336660
H         4.87674053284526   -3.13742578768421   13.44799871282732
H         5.56451934454476   -2.15089647713443   14.74752384318241

