39
CSD_code = SOJTAN | q = -1 | S = 0 | Stoichiometry = C17H15N2NiO2S2(1-) | MND = 4
Ni        7.40080997391785   12.03133517001703   24.13753905640161
N         7.09347674855708   10.75907784557180   22.73068567521911
N         8.58760755922836   12.85419804729246   22.95017481257246
O         6.20972605208377    8.69804344921164   22.13875322763438
O        10.09847306974049   14.53936870570302   22.49944973358528
S         6.09362920759268   10.80736864272284   25.43601945181936
S         7.93268510685347   13.48525010728356   25.60645567843056
C         7.14165525543043    7.32490914055001   25.81442491168129
H         7.55856802879547    7.33887180807132   24.81751189924300
C         6.66905199292764    6.13831189865197   26.34816034160279
H         6.72227496424813    5.23007750899577   25.76522830994790
C         6.12437899142268    6.11573194750776   27.62033479570722
H         5.75446167155822    5.18888099965738   28.03573295354502
C         6.05026438188987    7.28637238551063   28.35815755722154
H         5.62119932255248    7.27362834107328   29.35024469300945
C         6.52030112714463    8.47210078821396   27.82620392320482
H         6.45386457620377    9.38999472045552   28.39204911819789
C         7.07704036223234    8.50208956075019   26.55158378739895
C         7.54177977575272    9.79123462792104   25.96936341412585
H         8.18723136926477    9.64146510255030   25.09998150842578
H         8.04594702957462   10.41972393212125   26.70467641515238
C         5.43419373841879    9.73956114158278   24.12833426591030
H         5.26886707542956    8.73874636757224   24.53275164680608
H         4.46864167268619   10.17061448044081   23.85475756814715
C         6.32029603274032    9.68545680871589   22.86376419942363
C         7.88582138019889   11.01987703790828   21.60447602362628
C         7.90077961464858   10.27056234943226   20.43580790610720
H         7.27870173201415    9.39377204750881   20.35787582361523
C         8.71367256525372   10.65443862456858   19.38233447996957
H         8.72184146763169   10.06716340888146   18.47303562221922
C         9.50790185416044   11.78050458971686   19.49248390399848
H        10.14216786420251   12.07985399008248   18.66800873537582
C         9.50352394280830   12.54056282702969   20.65130369600432
H        10.12367761973230   13.41735982685028   20.72563489930450
C         8.69447205758648   12.17546913676531   21.72134988043861
C         9.29959416747773   13.96385563062763   23.23331537355375
C         9.04822372157920   14.52645806697468   24.62608553462818
H         8.60628626130630   15.52176800039481   24.53420030191061
H        10.00001066515881   14.61664093509895   25.15494887483794

