71
CSD_code = SOJTUG | q = 1 | S = 0 | Stoichiometry = C30H31CoN5O4(1+) | MND = 6
Co        0.48211066881988    2.23632088339812    4.61692027423733
N         1.31219376506122    0.94232203022932    3.40759395734647
N        -1.24053502520981    1.48741071872698    4.03966046988116
N         2.29337647870430    2.72333378221254    5.01172285945891
N         0.08449757832980    3.50807906665847    3.19427606094269
N         0.52812479466677    1.10111609528648    6.25521544643555
O        -0.25732766379223    3.49249645053020    5.73735560037565
O        -0.81282874855921    4.04325083542174    7.79134790002226
O        -1.76796409669671    0.21155275888227    6.32574282583106
O        -2.50066839080101    1.29168495321327    8.14970128270926
C        -0.46894036117828    3.20782046394298    6.99611122625059
C        -0.23719680256003    1.74591608949265    7.33670841772717
C        -1.70807131024347    1.00901581985361    7.29909856788022
C         0.38989188571581    1.58181640856030    8.70783510155279
C         2.70300479406081    3.81966749150678    5.64549006855353
C         4.03609109079693    4.04399795216182    5.94384967482371
C         4.97509752477479    3.09707822110059    5.56442374979137
C         4.54557809222271    1.95891767136103    4.89645552932043
C         3.19431139193805    1.79755453885468    4.63833771256223
C         2.62906650147799    0.57957940378169    3.94510309781231
C         0.34749680884281   -0.14608346841370    3.15294192230949
C        -0.99915092784729    0.57240957132220    2.90284784202407
C         0.91069276541914    4.39947967544156    2.64622668614363
C         0.46612286144753    5.45865099757932    1.87939405752318
C        -0.89874687245937    5.60680125869149    1.67280946245875
C        -1.75682889863863    4.67570844039082    2.22963056254930
C        -1.23533610558049    3.63950253894761    2.99259731865553
C        -2.09697272376219    2.60893226983344    3.66055714806170
C         0.71294563105488   -1.02969685261595    1.98483295688243
C         0.57849581038546   -2.40713870082082    2.09946888116770
C         0.86016327307026   -3.23063186409022    1.02406658119846
C         1.28432483301542   -2.68536220838905   -0.17556713000924
C         1.41888564344353   -1.31295030108355   -0.29863385897760
C         1.12945217774832   -0.48839520505574    0.77396407073846
C        -2.11169387197478   -0.41903206243863    2.64280492784603
C        -2.52161243641665   -0.63076829775973    1.33110050231784
C        -3.49882731835015   -1.56583017036618    1.04371554978012
C        -4.08018434021704   -2.29530721200834    2.06692442210817
C        -3.67781520580120   -2.08607967038829    3.37452422948927
C        -2.69314975117066   -1.15713981851953    3.66669861397217
H         1.92932583398876    4.52152840676174    5.92633341154828
H         4.32518172795446    4.94055160916037    6.46668094928128
H         6.02172868523409    3.23815020129404    5.78288648904775
H         5.24636806260231    1.20082059722603    4.58472021904514
H         1.96831847846190    4.26214616563527    2.82697695660612
H         1.17331253668722    6.15640401757256    1.46215053286185
H        -1.28223252531824    6.43052171422945    1.09189186545539
H        -2.82401859311909    4.74959777224892    2.09490803228290
H         0.23986975093404   -2.83563992225740    3.03085240135851
H         0.74721637749029   -4.29843870260067    1.12433797435450
H         1.50512550652715   -3.32598016815730   -1.01452874378441
H         1.74277123102364   -0.88159989465658   -1.23327520631745
H         1.22242065253975    0.58364133554884    0.64590721519135
H        -2.07076681989556   -0.06445104934763    0.52772907745069
H        -3.80762424750467   -1.72030079056999    0.02153533761339
H        -4.84630820688424   -3.02155991816406    1.84491017781831
H        -4.13007833141318   -2.64717480044638    4.17707087582549
H        -2.40685984557402   -1.01199417484887    4.69620356145126
H         0.25664744650562   -0.75975875129246    4.05462043060237
H        -0.87440059110585    1.18580111169159    1.99945196522899
H         1.47589210067830    1.38947249338689    2.50306712895061
H        -1.68527746122111    0.94775590289673    4.82575104568973
H         2.51123091527821   -0.23287568276807    4.67009318182023
H         3.31104546764299    0.22207264826271    3.16543914230326
H        -2.92338426937570    2.28889826201378    3.01554064921211
H        -2.52347423188213    3.05454528353653    4.56563416545172
H         0.44942237502308    0.53058436475578    8.98597829811152
H         1.38430932601774    2.02896909737164    8.74735333267574
H        -0.24658692547470    2.09390187449727    9.42529481431897
H         1.41550034802399    0.76811983260047    6.63277707024557
H        -0.09824829357620    0.27639060898758    6.05675307854418

