33
CSD_code = SOJTUH | q = 0 | S = 0 | Stoichiometry = C13H13ClIrN3O2 | MND = 4
C         7.85497419191247    0.34092764811745    2.79967759256008
C         7.86581138769165   -0.90285607383258    2.15071830179388
C         6.74949894488464   -1.58174071087232    1.51018039594230
C         6.54718779517608   -2.95484327933216    1.63697340849326
H         7.21964424200077   -3.55317600118574    2.23342804070470
C         5.45361664707584   -3.55453525256996    1.03984311433527
H         5.30292403151947   -4.61833262038550    1.14935050759917
C         4.55064959057184   -2.79659995391741    0.31367818301268
H         3.69854333492609   -3.27003706193996   -0.15016992927334
C         4.73888284347587   -1.42917542819362    0.19288751523530
H         4.03363408995625   -0.83299670987379   -0.36561788967702
C         5.82915937364947   -0.82297336439323    0.78592981817587
H         5.98596836384471    0.24363297125736    0.68128481678666
C         9.70224580657896   -2.56892232479902    1.67135850465529
H         9.64864871617812   -3.39108086851668    2.38752024290549
H        10.74918667773620   -2.37384923873266    1.44351310679470
H         9.16464267941903   -2.84158917659671    0.76447899937914
C         9.71938518999389    1.58651923137130    3.90509267288637
H         9.57298771095239    2.48022755047423    3.29034493282101
H        10.78606262453511    1.37536359878873    4.00252665554570
C         9.06309061360206    1.78441384682265    5.26505450912699
H         8.00069566050092    2.00476920954277    5.13300929979244
H         9.53071821856515    2.62123597993503    5.77508326760094
H         9.16575030882425    0.89369566353677    5.88099000259569
C         5.31847251411444    0.70132677042381    3.96530786764798
C         5.20967190817443    3.24044389653217    2.79953670646770
Cl        7.74872734577692    2.98824332766618    1.51041961906309
Ir        6.37487033354121    1.77358852180752    2.88849860004939
N         9.14020469165361    0.47243952105464    3.19925270604424
N         9.90850751735617   -0.53462713544759    2.86626721174052
N         9.13558684095358   -1.37432789525463    2.22706089093990
O         4.68229945604986   -0.00964449072731    4.61892693083798
O         4.60475034880955    4.20387984924019    2.66829339741794

