62
CSD_code = SOJYOG | q = 1 | S = 0 | Stoichiometry = C28H30ClNPRu(1+) | MND = 9
Ru        7.45348637280773    1.65136174879408   16.26790919763397
N         5.55833056596621    1.23608877619982   17.26547358968693
P         6.06715607261377    1.90905460764415   14.47220328572712
Cl        6.73290756348600    3.83429680454813   16.80845892811290
C         4.44868302837545    1.35731306766976   15.09327070799636
C         3.33331084414265    1.17230333167952   14.28119638144904
H         3.39960751979001    1.39794359793880   13.22649455159634
C         2.16089558501531    0.68035195137350   14.82577450955135
H         1.29475053387272    0.53805266115178   14.19899362328816
C         2.10153536484336    0.35765994462864   16.17296694236783
H         1.18886869420794   -0.03329294110961   16.59423306256546
C         3.21079044102366    0.52761560285854   16.98516660114613
H         3.15878735393044    0.26890489305622   18.03301413219937
C         4.38730235209599    1.02945684444087   16.44714817342275
C         5.86552016998503    3.58288106872280   13.81524839867355
C         7.04103503071041    4.24948589957932   13.47000107083076
H         7.99262474281563    3.74883231085027   13.61320125393058
C         6.98624629398007    5.53936770002463   12.98022645017510
H         7.89561411958840    6.05727138817759   12.71523406376656
C         5.75972178912524    6.17228964079174   12.84287097994820
H         5.71592945582507    7.18268675368213   12.46673651131758
C         4.59397761752545    5.51809476631225   13.20413513179273
H         3.64292148132044    6.02010210991639   13.11272790806320
C         4.63925735547813    4.22395322694016   13.69492408311968
H         3.72982528693959    3.72556239011473   13.99631596491934
C         6.30047892944999    0.85000583767027   13.01875155597913
C         6.01456520683353   -0.50766544576048   13.15596631291657
H         5.65503119619547   -0.87946628133789   14.10673861446021
C         6.17830614971460   -1.36168333812448   12.08231271230587
H         5.94685811094972   -2.41072748441853   12.18719254616914
C         6.64019011590359   -0.86996588942065   10.87028647635564
H         6.76768865187673   -1.53707981717957   10.03194217572859
C         6.93473920143479    0.47682964477255   10.73412063783285
H         7.29063953635282    0.85903975125289    9.78963645910213
C         6.76768601166044    1.33993248980179   11.80384733927298
H         6.98434004407793    2.39249486873294   11.69153659276485
C         9.41526733659460    2.03719637335916   17.48554691127229
C         9.61906952664987    2.22163544171643   16.08717779874369
H        10.07975690811974    3.14215096277315   15.74082015460288
C         9.37516866924170    1.17956151126023   15.17329702372430
H         9.66177979550657    1.29559517258243   14.13130733702826
C         8.88539518734204   -0.08179285027268   15.61498715572850
C         8.55618431483093   -0.20679407200951   16.97727506066820
H         8.20839553712656   -1.16642553376778   17.34826451409647
C         8.84818794719979    0.82912958399507   17.90646363445677
H         8.70416670152439    0.63936036525558   18.96323384868079
C         8.84708688492869   -1.25747976221796   14.69066614748076
H         9.82003688778108   -1.75194980575775   14.71421046139509
H         8.64936568930989   -0.95286645471378   13.66577810075276
H         8.09573257340625   -1.98117743243650   14.99695645518371
C         9.87468123741728    3.09507192977902   18.45486694910775
H         9.91695093891091    4.05020884356445   17.92073626642046
C        11.29260360335921    2.72955084057961   18.91346822381125
H        11.67048723468455    3.49979469640691   19.57965155788662
H        11.96817845134565    2.64568296671738   18.06472437246970
H        11.28925381605224    1.78200900240270   19.44848214259673
C         8.94022666127956    3.26639887834304   19.65153036672479
H         8.96128396391407    2.39882051051873   20.30677822068490
H         7.92092349550586    3.43960116641552   19.31114951419324
H         9.25421688802118    4.12869353824064   20.23275082603702
H         5.45638237050121    2.15738489533977   17.73206381256789
H         5.59610858952271    0.52228674995603   17.99995621751190

