63
CSD_code = SOJYEW | q = 0 | S = 0 | Stoichiometry = C28H30Cl2NPRu | MND = 9
Ru       12.79396180447888   13.38174026729304    9.21041946639793
C        14.13764609849393   14.29814761872999    7.59784452635107
C        13.14096229405214   15.21622689951791    7.94825670270985
C        12.99687850337097   15.67573693139952    9.29035803477648
C        13.85411361364711   15.14432148802239   10.25864384415651
C        14.83428658386503   14.17755763884804    9.91950606788323
C        15.00260269424583   13.75601018520358    8.58919173548041
C        11.98065134262665   16.74295167370975    9.61845107178916
C        12.68037400835132   18.10569484582047    9.66460639029947
C        11.24519961330137   16.45597446796389   10.92827911329588
C        16.15030305222457   12.87813107250845    8.18811460970774
P        12.62743345974918   11.23817956359394    8.42081953097969
Cl       12.22141098889878   12.55196839242423   11.33992613110720
Cl       10.47293713941914   13.56687445692322    8.77381602475801
C        13.52634801720692    9.96635326125105    9.36193525044085
C        14.45399344258561   10.34156625782530   10.32473485267961
C        15.14715167474515    9.37788665317450   11.03532859875046
C        14.91762148962181    8.03537749831895   10.78589180402013
C        13.98992903442449    7.65603026618300    9.82807352000231
C        13.29303228702601    8.61505648750392    9.11752086137520
C        10.98387844630746   10.45487063234155    8.31189774708869
C        10.21677827687842   10.42495249323733    9.47414986979763
C         8.97604475132930    9.81746078592339    9.46547109103864
C         8.49515209116922    9.23442654210553    8.30346360334940
C         9.25980939548459    9.25583096114888    7.14979168537331
C        10.50361159025316    9.86339387351533    7.14884544900614
C        13.29815820633519   11.09419880691726    6.74229877917963
C        12.72793506362784   11.87506793125775    5.71194168297195
N        11.71408899761208   12.74120832538895    5.95756981244273
C        13.27390090221306   11.77607376770348    4.42446110368594
C        14.35256878743839   10.95855702816489    4.16834917200238
C        14.92478969797365   10.21186686196949    5.18900086909252
C        14.39732906381194   10.28748702419074    6.46420424813211
H        14.29598771693923   14.03547869304562    6.55786910376334
H        12.51224183409022   15.64549853169659    7.17494510377548
H        13.79763655012595   15.48812956519242   11.28475116515588
H        15.51946173253431   13.82985549975998   10.68586558550860
H        11.23836127310209   16.75693086278677    8.81193559039195
H        13.43042735539951   18.12308470229129   10.45355111778220
H        13.17143291353591   18.32123280191881    8.71696193286200
H        11.95330860516263   18.88909108795174    9.86331116266251
H        10.88125990214161   15.42906331131537   10.93851671736446
H        11.89107718667686   16.60479541569499   11.79091484431123
H        10.39092927867671   17.12129388202402   11.02572047289428
H        15.86523199149459   12.20800412213891    7.37872616955186
H        16.97308191954169   13.50365694377974    7.83632688155680
H        16.50662989714100   12.28406615799626    9.02685600973009
H        14.60188123171753   11.39309150553159   10.53104587373109
H        15.86138033790874    9.67288116333907   11.79010737315887
H        15.45559006711136    7.28237396704961   11.34286072000419
H        13.80662385487120    6.60848598718264    9.63829640681909
H        12.56592794617291    8.32328708276737    8.37232466236704
H        10.59733393729795   10.89565703578588   10.37113516915405
H         8.37967022697827    9.80290562610588   10.36539426010574
H         7.52266941418083    8.76409185992273    8.29642688815705
H         8.88750787026791    8.79934288230893    6.24381964405198
H        11.09897805568829    9.87309039937795    6.24622338866309
H        12.83356272323350   12.36200086298477    3.62956426240606
H        14.75454915373094   10.90200778660484    3.16741699246052
H        15.77247235207899    9.57435314064330    4.99062694199413
H        14.83661163187490    9.70395732138562    7.26067582846470
H        11.23622838443368   13.15132080117342    5.17430762979286
H        11.21616224312546   12.74189004015333    6.84295885125990

