61
CSD_code = SOJZAT | q = 0 | S = 0 | Stoichiometry = C30H25I2NP2Pd | MND = 4
Pd        6.74467197988135   10.36281555667651    1.91127630683561
I         6.69998499147105   11.16661909106438    4.36002532162092
I         8.35205559017473    8.37547552727814    2.33809011176414
P         5.72338518981886   12.20060218722616    1.14225470063473
P         6.58203813459632    9.50507447543743   -0.14518280184199
N         5.81637830334747   10.44410675704522   -1.35177555239232
H         5.83916044622111    9.96025217290562   -2.24894372048169
C         5.15074981665551   13.55799345029583    2.19271516357843
C         4.13657012611914   13.27518583305463    3.10671281432935
H         3.71952134704715   12.27515011044885    3.14768210347898
C         3.68775113182694   14.25956853029378    3.96386289205646
H         2.90829911134894   14.03867206014676    4.67699271871249
C         4.25531400651198   15.52398296817725    3.91800756292318
H         3.91344610672651   16.29089201858742    4.59652966618960
C         5.26837845808445   15.80276973675244    3.01636012595752
H         5.71484325030409   16.78573973459445    2.99017785729211
C         5.72409350163731   14.82217494299394    2.15217562285054
H         6.52436104137435   15.03577090523642    1.45670683342922
C         4.41846818492559   12.00776902867739   -0.10080389271721
C         4.60999208964493   11.12451387104321   -1.17479054501556
C         3.60268543215875   10.98290083247628   -2.12560233102083
H         3.75839155135841   10.30849818669193   -2.95732584297109
C         2.41982300293516   11.68696590289060   -2.01635206239815
H         1.65188642507117   11.56067168007287   -2.76418430398266
C         2.22183161919783   12.54622496465861   -0.94776211462568
H         1.29918450624616   13.09775513263248   -0.85473629074493
C         3.21509795327162   12.70166433429629   -0.00027892569533
H         3.06428853316555   13.38157431683460    0.82571378539444
C         7.13283534286396   12.86534980885315    0.20187306997693
C         6.97524832942657   13.60996845395024   -0.96263430283365
H         5.97997611903474   13.84153955062897   -1.31924640204437
C         8.09102865797381   14.03958895582564   -1.65911589515711
H         7.96764023873486   14.61254960179472   -2.56670410256240
C         9.36207389803395   13.73408435199224   -1.19761694430913
H        10.22892102540217   14.06614622424803   -1.74936211082811
C         9.52518934036466   13.00480673340264   -0.02989291876340
H        10.51546192198599   12.77095518463226    0.33140030190815
C         8.41506193020273   12.56654507466773    0.67006893763820
H         8.55760611292165   12.00465221476728    1.60665664976640
C         7.98910894670726    8.97371953860432   -1.15012779510773
C         8.44688254714956    7.66079603476406   -1.14572404058093
H         7.93762870184859    6.90917759477362   -0.55946050916843
C         9.56984973034245    7.32647662618035   -1.88023089464297
H         9.92460856823009    6.30715355028368   -1.87563922658985
C        10.24530311919782    8.29618495967003   -2.60344704416082
H        11.12899632111302    8.03195254208802   -3.16469044623514
C         9.79612318407133    9.60709321764109   -2.59877688920842
H        10.32744834470991   10.36661055871833   -3.15335016254300
C         8.67049709815292    9.94927435639156   -1.87339390647287
H         8.31879991480011   10.97296423135647   -1.85860514118563
C         5.46256939266495    8.08042547959871    0.05046655559402
C         5.19386870088233    7.20165269164808   -0.99395674678285
H         5.71772481973428    7.30756152873142   -1.93607797809457
C         4.27361677827034    6.18570122061352   -0.81469473006433
H         4.07384311058425    5.49431198927515   -1.62009190533100
C         3.61180416118870    6.05160836743241    0.39601288007798
H         2.89804290233934    5.25309670286242    0.53194297871613
C         3.86193114326928    6.93685113340169    1.43223952245736
H         3.34471327076725    6.83157185204916    2.37405698965695
C         4.78247888839136    7.95389321224406    1.26000916772353
H         4.98376560749698    8.65085214838816    2.09166783602487

