72
CSD_code = SOKCAX | q = 0 | S = 0 | Stoichiometry = C30H34N4O2PtS | MND = 4
Pt        4.29486297705349    1.18007578211487    6.63144427263153
S         3.85388518029785   -0.39435148907746    8.24535091628869
O        14.23371668544121    3.81837000777523   12.81513324733337
O         1.39509470311992    3.44754547226160    0.97146468100531
N         4.74800680657924    2.68425305675399    5.33054083254451
N         6.04361111929818    1.91832667206004    7.48884994254345
N         6.80618452779372    1.65876157596295    8.50856468342120
N         9.75434080573044    3.35717474799135    9.58833270621596
C         5.80895550833202    3.37807327600183    5.62378417629503
C         6.53468564282434    2.98456848718292    6.78931971957897
C         7.82861975634043    2.54635409149340    8.52171958330880
C         7.70338479239166    3.42797062612202    7.43404934290034
C         8.60700597511958    4.54754736193502    7.07078958062906
H         8.96242788610311    4.44457637420389    6.04549764779369
H         9.45524977619654    4.54976495152939    7.74920023778679
H         8.08813351674020    5.50315588857171    7.15599041656973
C         6.26063714800419    4.54660098225786    4.80899644559532
H         5.52868314318763    4.79465655365315    4.04392042032973
H         7.21204023068940    4.31800722752780    4.33067242359383
H         6.41424311205200    5.40700749449786    5.45650030155872
C         8.84223514489504    2.47125184282677    9.55142420899336
C         8.69818037794440    1.33641491877207   10.53079213693271
H         8.96025592208380    0.39923572096588   10.04138809722245
H         7.66231800990023    1.26532675977077   10.85281670057342
H         9.34912239342049    1.48595388376854   11.38959299860384
C        10.83479315660030    3.38065361368303   10.44077662803285
C        11.06695607009991    4.52517937233247   11.21068975415966
H        10.33626355940140    5.31950257125752   11.19636467308628
C        12.19367971067171    4.62755069418154   11.99204079609546
H        12.36997479596679    5.50125587327291   12.59970739343413
C        13.14454246065200    3.60593206618377   12.01038431743228
C        12.93505747009418    2.47621970857988   11.23133901968539
H        13.65215086587013    1.66985580200989   11.21251233892699
C        11.78859548962876    2.36410348797734   10.46455463540338
H        11.63930078457031    1.48588162582330    9.85274652676683
C        15.22849660223120    2.82920786435342   12.86133819624342
H        14.83643559549111    1.87769312087321   13.23740934729605
H        15.98522550230756    3.20178750525958   13.55054652360120
H        15.68459280019096    2.66854910623146   11.87814288954292
C         3.95722407776376    2.93789459326445    4.19269722170081
C         4.39063967978408    2.57378558118292    2.92494694854977
H         5.37307657271540    2.14103453098155    2.80251853999203
C         3.56595780952739    2.72886477183625    1.82382429016573
H         3.92902016156712    2.42200078858464    0.85581846912164
C         2.29250996831399    3.26291559851032    1.97833852489338
C         1.86761337857250    3.65400702911576    3.25040198764903
H         0.87942510095189    4.07185761161711    3.35356544815102
C         2.68568570687734    3.49139414056597    4.34302184591086
H         2.35004708408918    3.77604699402765    5.32888270371817
C         1.73776907978170    3.01502034771088   -0.32217879725076
H         2.59825448973437    3.56543991062147   -0.71724857395517
H         0.86644453637763    3.22011213048920   -0.94217594293946
H         1.95168152882808    1.94161473125716   -0.34270878982946
C         2.66712650209201    0.65406979676057    5.58546131270695
C         2.78996181367385    0.01268113153444    4.35468035229448
H         3.77423825508579   -0.26515384990560    3.98815526959124
C         1.68130009896564   -0.26665562959218    3.57386577414383
H         1.80277884098084   -0.76077536187941    2.61917491278965
C         0.41819832465807    0.09152202451891    4.01076209017299
H        -0.44834305425343   -0.11712855855405    3.39953106259436
C         0.27201428025374    0.71805224751180    5.23591879136502
H        -0.71310155923340    0.99581915626437    5.58543530431019
C         1.38495256838834    0.99024047289873    6.01413749615682
H         1.25201890673220    1.47818307680054    6.97486690431221
C         3.09692820074216   -1.84775789831900    7.44530085137349
H         3.65017131359515   -2.11857277057983    6.55143506817982
H         2.07886586774548   -1.58390479766382    7.17843185060600
H         3.09715791999883   -2.66463976352828    8.16220246132830
C         5.50472265728443   -1.08732994062451    8.55582933609384
H         5.42466722044080   -1.83348994565599    9.34184102812933
H         6.14004998657658   -0.25788166473693    8.87119779271518
H         5.89599667604907   -1.53176116395593    7.64507970531542

