59
CSD_code = SOKDIF | q = 0 | S = 0 | Stoichiometry = C29H21NO6PRh | MND = 4
Rh        0.51382373643396    2.72989922789306    8.48091333935299
P         1.47168419759863    0.71298144345947    8.69611618649892
O         3.04331269086967    0.67309011852402    8.32480772077237
O         1.21276372584685    3.13299743610981   10.28559536758139
O         0.85432651523184   -0.44317062160713    7.74497231085874
O         1.57888466411647    0.01896753937427   10.13210930535607
C         3.41619780910747    1.57930337146409    7.34326849252616
C         3.40479226074132    2.94289149202186    7.62267951962282
O        -0.08924804872993    1.98075579408801    5.67540124510594
C         0.04609206417766    2.32603953621139    6.76517344090516
C         3.76343811636023    1.11733459904756    6.08430050044799
C         4.10777906572109    2.02666432459443    5.09755812491447
N        -0.21060411763467    4.62820707840869    8.62226864148501
O         1.96440292905372    4.91503893126928   11.38477971062509
C        -1.08848428891746    5.34937082974859    7.87198714784049
C        -2.89604498361473    6.81430089443328    6.31025926358067
C         0.51129053036175    5.25706675563690    9.53563138522513
C         1.29831605680241    0.52586124940828   12.43701633884859
C         1.32517513365788    4.38295111105335   10.49550688245622
C         0.76286002766259    0.45636665340609   11.16091598206211
C        -2.06381983079325    7.47538504139352    7.16936066157282
C        -2.86257040648574    5.41350745186595    6.23671149769068
C        -0.81125985253457    1.32191770842070   13.26175708662740
C         0.50571152453178    0.95797506138896   13.48527595796837
C        -0.56050989040834    0.80480140768984   10.92991714192444
C        -0.31392284721381    7.41075784916202    8.91328189798998
C         2.44987305209366   -2.24284157279384    8.09626968188620
C         4.08738306304759    3.38560530171670    5.36128792451628
C         1.09991826009823   -2.12250217571938    6.10573662872722
C         1.48438799352547   -1.60260635818485    7.33561993125340
C        -1.15393337668230    6.76654895787572    7.98014740632259
C         0.48950885102344    6.64976489640935    9.71336473843092
C         3.03016623656495   -3.40635710676892    7.61945855651189
C         2.64938618944396   -3.93217386319322    6.39708141564798
C         1.68128813206234   -3.28876953739670    5.64331685986616
C        -1.98083123606812    4.69725918183864    6.99824304460511
C         3.74656839951343    3.84218650432644    6.62410459045011
C        -1.34234241051412    1.24248669312346   11.98584000748995
H         3.21552211699767    3.27569107223753    8.63707102182629
H         3.75666739969046    0.05504719209875    5.89083691472007
H         4.37976425914378    1.66872127118761    4.11632334417772
H        -3.59205812386785    7.36300362886797    5.69408028420160
H         2.33270513720712    0.26143654440366   12.58937209714152
H        -2.09424440195425    8.55194665669851    7.25222859329322
H        -3.54436572289117    4.90075027805828    5.57543886287862
H        -1.42190790050617    1.67197754792001   14.08031404442625
H         0.92540144837872    1.02512788241345   14.47745005443423
H        -0.96932331468428    0.71867635353295    9.92632410682362
H        -0.33888901093018    8.48769897762569    8.99523620347354
H         2.73913027069103   -1.82688992915229    9.04831396637736
H         4.34408189429525    4.08948424102891    4.58425330601014
H         0.35044684906397   -1.60111801842658    5.53111862592116
H         1.12674924411568    7.06320406050031   10.47967156225273
H         3.78464551770825   -3.90307546134461    8.21089098873553
H         3.10529482162904   -4.83992340267765    6.03171760328704
H         1.38003643141015   -3.69251119233921    4.68832350656310
H        -1.96407636411664    3.61666232096502    6.96526453681458
H         3.75029293435588    4.90051485207500    6.83829261381930
H        -2.36933342177949    1.52441191864079   11.80684182726540

