58
CSD_code = SOKLUA | q = 0 | S = 0 | Stoichiometry = C23H25N6O3Re | MND = 6
Re       -1.71051982141770    1.33559329443714    5.92597291507477
C         3.37038882147540   -2.60962501524544    2.31011689551478
C        -1.68845524642558    1.03546964335694    3.01763403922676
O        -0.09349105869641    0.93281323424183    8.53393630941760
N         1.50554036803032    3.88235581323468    4.49471170235336
C        -1.59526970979328    0.85282883233266    0.53643895533735
H        -2.12211218009800    1.32016896785057   -0.29368754841850
H        -1.68358173009126   -0.23315310424608    0.44803351587777
H        -0.53670950424916    1.11658216603287    0.48327199395749
N         2.03955264547844   -0.74686708932288    3.16959914091582
N        -0.32658829875492    2.92692603298017    5.23098832335890
N        -2.16212518876972    1.30892270884874    1.77176432494539
C         1.83008257631533   -1.00260388181258    4.41601776715220
H         2.56892358656256   -1.55176553148651    5.01490489908359
O        -3.65052078241982    3.38392730115365    7.20184832973279
N        -2.48414693832726    1.59804839803552    3.94299409260934
O        -3.53117657340516   -1.10097311634821    6.47378285775292
N        -0.33707629958963    0.12753451743947    4.68003697513342
C        -0.54999433380696    0.29553880856609    3.37863249374499
H         0.10253820799139   -0.14790332426699    2.64277787560053
C         3.09584033830093   -1.23747484731996    2.43917852028147
C         4.38595725310973   -3.01469123908709    1.45785550524459
H         4.58830107371949   -4.07343299643086    1.36260212405558
C        -3.30295599701959    2.06081522056766    1.93254972728044
H        -3.87482606500053    2.40374623071307    1.09531703668548
C        -2.92606504159712    2.61060366941308    6.75956095794754
C         4.85491332229348   -0.75974122680363    0.85715350586511
H         5.43127532199364   -0.03737160234951    0.29411882997837
C         0.46718412293519    4.70758519731264    4.17338293497851
H         0.61193233107779    5.63325773022211    3.65615200006171
C         2.89207075370998    4.10918785680137    4.20132956995287
H         3.22104766949137    5.05410109567917    4.63709025076726
H         3.05112617650387    4.14468341036698    3.12192022994212
H         3.48438765415432    3.29772642850297    4.61931273657899
C         5.14671662148887   -2.11205806491994    0.73221147358228
C         3.84198346154586   -0.31505519226376    1.68384034621619
C        -0.71677212555086    1.07808073885705    7.58003762068955
C         0.72306005866585   -0.52739228808055    5.14844505092762
H         0.73408867259360   -0.70196100224642    6.21646048580099
C         6.23808031794842   -2.57496134570810   -0.18673379372679
H         6.50812099674434   -3.60763315524868    0.02107851579205
H         7.12427761264296   -1.95176738678970   -0.07750609883888
H         5.91080315923723   -2.51035570769294   -1.22539904945323
C        -2.86702759120324   -0.18277660679683    6.30131320681948
C         2.56966037191250   -3.65114069847692    3.03909496554699
H         2.46132142354153   -4.54150170768114    2.42172318226021
H         1.57886553504085   -3.27975599683942    3.29465122765993
H         3.06917660335650   -3.94524301592930    3.96329413762385
C         3.56460169088578    1.15418390386368    1.82975511640591
H         3.78249459810932    1.68302037629355    0.90366220419787
H         4.19018926168094    1.57614939402571    2.61881708847411
H         2.52247020961061    1.30643565673566    2.10474373979750
C        -3.48389288906567    2.22900037216700    3.26995116177761
H        -4.26378930135942    2.75466104582136    3.78569048968268
C         0.98125485343816    2.82406343397291    5.13081905767948
H         1.56887346525009    2.00420275114029    5.49869074152465
C        -0.66349223480937    4.10388785931961    4.63665134723850
H        -1.68081222537432    4.43930305309328    4.58400799431157

