85
CSD_code = SOKNIS | q = 1 | S = 0 | Stoichiometry = C24H57OP2Pt(1+) | MND = 4
Pt       15.65683348943517    9.98418363513341    3.65828667499982
P        14.07539762196115   11.53964490464633    2.90039945898461
P        17.45706987736479    8.44146635501094    3.99737861242785
C        12.16207727240972   10.89803719865348    4.79710968595501
H        11.74596561631001   11.12558248528457    5.77663173550252
H        12.89482071169862   10.09701061733720    4.91155401550847
H        11.34883481704653   10.53543540452285    4.18041270783435
C        12.83271434139085   12.15232694281598    4.21726856660836
C        11.78551058606355   13.14207799563338    3.71347670207580
H        11.10059882720828   12.69377182014459    3.00073564093896
H        12.24404673175657   14.01699231831103    3.26012598506845
H        11.19145222420832   13.48127561458440    4.56148000315469
C        17.70842517763057    7.58742443868540    2.29677285606162
C        19.04141517110585    6.87263315356100    2.08790749598798
H        19.23821101577526    6.13119605710224    2.85446643979801
H        19.87410346796305    7.56888139688833    2.04841424846887
H        19.00958829089664    6.35615521402803    1.12921906484537
C        16.56754800826130    6.58824720096665    2.08020885598724
H        16.57773540572142    6.25371227390286    1.04417487757120
H        15.60310650914406    7.05902819240397    2.26800923195278
H        16.66745713526933    5.70507242113747    2.70119142842446
C        17.53791514410648    8.66134835602208    1.21400292672437
H        16.68113778516416    9.29474101776201    1.45505180628622
H        17.33800199112202    8.18438058831592    0.25655084429148
H        18.42004604610587    9.27769448860733    1.08666553507726
C        18.69372998794194   10.35107904142232    5.62438554751381
H        18.91144755120362    9.90573898961295    6.58924990178534
H        17.63989937656114   10.62572523516596    5.60945488737683
H        19.27927628142065   11.26636194219654    5.55483157795555
C        19.04913960837699    9.40344299374582    4.46462011492473
C        19.44804854707580   10.26960308949976    3.26436544903125
H        20.18467841127341   11.00895695891506    3.57702773052760
H        18.59404170032816   10.80366621771564    2.85041313085507
H        19.90844768544718    9.67667729581467    2.48031909240611
C        17.15279102894271    7.10111555316528    5.33178852414662
C        15.67060053960374    6.71482666702825    5.27227577894213
H        15.40561573537550    6.19946198345930    4.35717203334153
H        15.04806388261509    7.60539828880593    5.36170432252506
H        15.43795921358551    6.04995466256699    6.10214826952979
C        18.01931626977860    5.84907974730232    5.20390081341855
H        17.84546057081168    5.21789695158520    6.07472544129991
H        19.07809128335645    6.08793053553425    5.17801391389632
H        17.76870357935321    5.26138109626366    4.32683566308817
C        13.14215290867437   11.10617793094441    1.29339440833418
C        12.70196955657694   12.32543245937951    0.48569197970608
H        13.54880769247984   12.87386258514465    0.08366093372048
H        12.09400147126478   13.00806332200555    1.07013490286006
H        12.10322941273361   11.98752004953539   -0.35894178167321
C        11.92281973614328   10.25356209148550    1.65470551112811
H        11.51443215293755    9.81272087769172    0.74702530979702
H        11.12940604619221   10.83644366906329    2.10958139634778
H        12.20912011656874    9.43959848009307    2.31928979518199
C        14.03651356317078   10.20717626738550    0.43241325826572
H        13.44476324308607    9.79833141333669   -0.38437444262444
H        14.40902248965394    9.37053440928099    1.02265494663946
H        14.87062621414179   10.73490717901212   -0.01281249548883
C        15.40786388000267   12.86776353670822    2.57336566187608
C        17.37657886132168    7.70105551661342    6.72286910985168
H        16.97004383700358    7.02212706116655    7.47099472585658
H        16.85999209887254    8.64991374719524    6.81484891176742
H        18.42823337414264    7.83408942145776    6.95115444353979
C        20.25717797880401    8.55537462533642    4.85800184877697
H        21.09851534456158    9.22178722189925    5.04775034321576
H        20.55034275450836    7.86940306309221    4.07027071294182
H        20.08434553568939    7.98603400540435    5.76566778452457
C        16.40299140303847   12.63753010637742    3.72527901411974
H        17.37045049146539   13.08303463352170    3.48958758627066
H        16.56370542696925   11.54004637212200    3.87294210526408
H        16.06670491062600   13.06624244517429    4.66411321670097
C        14.95759175018960   14.32253148857835    2.49571699217501
H        14.49794006241073   14.66987822478785    3.41561536013158
H        14.25285663363603   14.46999060575880    1.68161227245698
H        15.82385502703240   14.95575768756538    2.30429507554425
C        13.59783415804510   12.80396599507300    5.37295852213628
H        12.90616908005508   12.98984289897869    6.19371748608580
H        14.02972751701449   13.76209601860240    5.10244440718874
H        14.37326663766721   12.13648147182678    5.73678252006418
C        16.17108480551516   12.52985486266005    1.28919405012212
H        15.58378153198559   12.72452463013455    0.39782161461085
H        16.49355011441535   11.48867820828641    1.28620278176450
H        17.06189883393774   13.15562203896769    1.22648635333561
O        15.29955920879444   10.28823052559016    6.41778834601912
H        14.54096300979514    9.77778076022414    6.71030862830209
H        15.70562963640163   10.68076321298664    7.19426460560498
H        14.73665697449078    8.83115153850687    3.42919420573442

