48
CSD_code = SOKQUE | q = 1 | S = 0 | Stoichiometry = C21H20MnN2O4(1+) | MND = 6
Mn        1.82878906320350    0.15935236050633    1.78347479698258
O         1.07832878694379    1.57148906600954    1.02256461476473
O         0.49542443370593   -0.78450135453160    2.48246984231549
O         1.90021451647367    1.14945380801685    3.76011644770441
O         1.56793653172304   -0.76642155965137   -0.24672440739528
N         3.60200657597323    1.01400174055633    1.46931526167740
N         3.03635126093757   -1.38032649246437    2.16254210043602
C         1.36739109484986    2.83215361837089    1.04760772437934
C         2.71858313775092    3.25759274100335    1.25100772997023
C         3.01032744088407    4.63500020989681    1.21535863278248
C         2.02465062701006    5.56330382363672    1.00244554449874
C         0.70422591545802    5.14505274216262    0.80495525977532
C         0.38017376383412    3.81157208685947    0.81698236103479
C         0.21702077848018   -2.04858375626223    2.46918005937161
C         1.26028170135390   -3.01842142236572    2.32306378665919
C         0.92665833623491   -4.38654509744232    2.36343902856583
C        -0.37109395302848   -4.79601955371057    2.52608089883980
C        -1.38917294670317   -3.84649077436469    2.66739319134189
C        -1.10547418955460   -2.50408472609457    2.64901092491702
C         3.75487673182411    2.31109187971948    1.44685447228548
C         2.61179026165702   -2.61605102314133    2.17658481631712
C         4.71163944213479    0.18479961349555    1.62176892479242
C         6.03994292059537    0.52585471895192    1.37065101325105
C         7.04796098113772   -0.37811080997712    1.64771592963468
C         6.74869356570898   -1.62313084482374    2.18328566491428
C         5.43496890600170   -1.99666450950948    2.39443233150383
C         4.40218269004929   -1.11630432543872    2.07470890044638
C         2.37270554485445    0.48858160008197    4.93210851653598
H         4.03324647545338    4.95025792681248    1.35813689577925
H         2.26115455239451    6.61490196594700    0.98239545083219
H        -0.06836304619432    5.87989841201934    0.63839991376868
H        -0.63599649949251    3.48044121338737    0.66434074274391
H         1.71867961191219   -5.11384851793022    2.26479084800437
H        -0.61218319695731   -5.84640215199777    2.54999528470761
H        -2.40948979880846   -4.17381959359827    2.79481141858294
H        -1.88452744105083   -1.76478841185829    2.75840694013497
H         4.75097328825076    2.72689733058903    1.58576203041869
H         3.33392126766799   -3.42329574370279    2.07277156882692
H         6.29073303473556    1.48516332017341    0.94602116462805
H         8.07402977826452   -0.10731214623330    1.45610411628794
H         7.54381320843704   -2.31019049262620    2.42538062429843
H         5.22078335706930   -2.96497971465985    2.81897597458934
H         1.75258337933171   -0.37721263090658    5.18038559433753
H         3.39106102832736    0.16061741114870    4.72544180256091
H         2.38363319143848    1.18754818182158    5.77201597908722
H         0.77809681074172   -1.32057544558760   -0.29277226404950
H         1.49310235443700   -0.12287602423730   -0.96386850559527
H         1.02576472454637    1.51453135194767    3.96391005175336

