90
CSD_code = SOKROB | q = 0 | S = 0 | Stoichiometry = C36H48N4NiSi | MND = 4
Ni        3.95862018573970    8.52609645949789    4.60447169578870
H         4.13438239336266    8.67178598734450    6.01828565577299
Si        5.66335812403142    7.09308055462089    4.78307090114375
C         4.72920633272305    5.42328010399466    5.09947518507177
C         4.43197859683814    4.51293703246507    4.09417656085798
H         4.78484174857039    4.69700091254344    3.09038483565022
C         3.71212789833631    3.35939728294115    4.35468659265662
H         3.49380373367191    2.66554125004338    3.55348700798439
C         3.27714905534310    3.08850162077633    5.64024687914911
H         2.71739940421291    2.18665040686447    5.84811277168212
C         3.57356242443185    3.97881417472564    6.65971899099422
H         3.24986121619764    3.76742549361673    7.67046093007407
C         4.28367654235062    5.13307369911979    6.38620664984974
H         4.50684946139815    5.82607266516452    7.18448047539807
C         6.94720174587084    7.09565853164448    6.22304790937398
C         7.48648506142306    5.90806027831807    6.70388927940545
H         7.16870139835804    4.96999053913120    6.27027642883948
C         8.42087777539857    5.90658703599154    7.72388000123186
H         8.82648759837078    4.97087534276043    8.08492640546472
C         8.83998762170196    7.10254962864315    8.28267111507797
H         9.57155699106705    7.10428098284316    9.07915370429563
C         8.31372632485772    8.29483379828011    7.81612371066274
H         8.63500447528310    9.23283548283972    8.24920154525857
C         7.37565052569704    8.28387204059967    6.79907637310983
H         6.95790633030573    9.21711341462485    6.44574759170965
C         6.83382309427261    6.67093041994995    3.29596247277531
C         8.21118673515484    6.56695762055047    3.46452581914560
H         8.63716951408004    6.72895354035330    4.44322073174517
C         9.04772650124329    6.26517419895550    2.40412085940510
H        10.11434008983618    6.18877101481958    2.56533871102884
C         8.52519756416913    6.06148595755055    1.13839532428730
H         9.17672621946705    5.82504554617853    0.30871585051934
C         7.15876036043843    6.16719909116854    0.94579774461987
H         6.73624789976829    6.01546717774847   -0.03926762138860
C         6.33448136119845    6.47055156416029    2.01396057704680
H         5.27324744079721    6.56466873323371    1.84439138246388
C         4.03023142519460    8.69835132066061    2.64562941806415
N         4.85755331190829    9.58707812979144    2.05243894189476
C         4.65963490817255    9.60114054311551    0.69916000054388
H         5.21471464080744   10.22862802487127    0.03331433428045
C         3.67733852318860    8.71008779812524    0.43611097356017
H         3.22977750504199    8.43053224195682   -0.49509968434272
N         3.30505451628203    8.16534648934598    1.63776165894770
C         5.83052612897866   10.39409479597245    2.76257420036833
H         5.66762941491189   10.17150451090987    3.83198528707712
C         7.25190875717863    9.99573907665903    2.37559562928754
H         7.41638668044546    8.93972351004387    2.56783547791003
H         7.96470684820918   10.56802395358408    2.96269235094525
H         7.43494962565810   10.19265782942181    1.32085952756176
C         5.60269488549004   11.88158826139891    2.49740593495933
H         5.85545306067546   12.13281695376045    1.46900639978241
H         6.23581553918717   12.46942969339402    3.15638342550333
H         4.56767327273469   12.15970229826089    2.67566158452605
C         2.26175194144130    7.17920512674685    1.82015815563384
H         2.34420916342289    6.85428705629592    2.86475071191667
C         2.46308770006674    5.97101182845346    0.90913947799329
H         1.74032108043909    5.19996176435342    1.16297431250640
H         3.45944233083769    5.55529629077393    1.03559436453697
H         2.32611938496648    6.23862007192815   -0.13654000943226
C         0.89365418112876    7.82155445574910    1.58414506980038
H         0.74207720351641    8.65713312931368    2.26335767705110
H         0.10289459292390    7.09432873469113    1.74958698405729
H         0.81435690976119    8.18683395993358    0.56168081645579
C         2.07115783004551    9.14226054182021    4.81358924492217
N         1.42513604523132   10.29505129278230    4.54571289579564
C         0.08198249074681   10.16269160811940    4.78537492931252
H        -0.61937814654849   10.95661861520786    4.63268447286997
C        -0.11164217892011    8.89716091388815    5.22229560707824
H        -1.01300494585634    8.40082807442859    5.51611255623167
N         1.11243131217509    8.28744326190465    5.23061707589964
C         2.08293302489527   11.50005017436296    4.09390798339698
H         3.15453230486686   11.26559318816732    4.12195019423171
C         1.66107178803926   11.83132722810761    2.66270307299108
H         1.92260140361887   11.01609412789092    1.99105253838042
H         2.16189714905016   12.73414657437153    2.32238842805963
H         0.58674424943308   11.99606031143275    2.60711660722807
C         1.80508431791266   12.65808968541746    5.04879687298346
H         0.75640140552317   12.94586290779678    5.02209467889181
H         2.40460814931999   13.52015456827185    4.76862766815751
H         2.06494580872936   12.37252768838383    6.06532453817626
C         1.38376420354731    6.95317929790614    5.73032781440037
H         2.42934383339298    6.73888298570126    5.46184208563682
C         0.46964238793215    5.91240674451251    5.09304213246019
H        -0.55084004764724    6.00651849523348    5.45938393782619
H         0.83537282951147    4.92010212472583    5.34267035773077
H         0.46187792855808    6.01120727223373    4.01042320940857
C         1.26234466222539    6.94108852220715    7.25212374393034
H         0.24761125746746    7.18164466532517    7.56455116105257
H         1.94777721848343    7.66827668615085    7.68042055746438
H         1.52333043954882    5.95683500995321    7.62848156539798

