87
CSD_code = SOKSIW | q = 0 | S = 0 | Stoichiometry = C26H54N4NiSi2 | MND = 4
Ni        4.11654654188589    7.17278050341200    1.17896919243438
N         2.78876693657829    9.60728878676196   -0.27731719452814
N         3.40220163509145   10.02962040528391    1.73099641406502
N         5.47904331088682    6.51916333706087   -1.40361034777562
N         6.49543917569142    8.21017603283023   -0.56879804163451
Si        5.25737876565925    5.52734702822338    2.19653191873660
Si        2.28675555215545    6.50316738023106    2.29426934736508
C         3.33865572876266    9.03911817586711    0.81603256656140
C         2.51424208580475   10.93033618465846   -0.04989200061754
H         2.07735575034605   11.57256056513246   -0.78635628168749
C         2.89789801777843   11.19435995845065    1.21991661907522
H         2.84985593821992   12.10674349451855    1.77727241663227
C         3.86000882460621    9.84515433990009    3.09231198261835
H         4.22960493633731    8.80846776338176    3.13370248757100
C         2.51668127389275    8.90093601603886   -1.50871837062742
H         2.72799704170006    7.84779237565703   -1.28610607121168
C         4.98875097153981   10.81381183457161    3.43653091057045
H         5.79580716131476   10.74554799788277    2.71187095672528
H         5.38725930893936   10.57074655742091    4.41773738690784
H         4.62823813998008   11.84055263206045    3.45859317615801
C         2.69139976077316   10.00046971353958    4.06233713725933
H         1.89087679178214    9.31811477358367    3.79111525756383
H         2.30993481927440   11.01999159972059    4.04968349455358
H         3.01736013779194    9.76545936959824    5.07154466933099
C         3.44470528805548    9.39241807142914   -2.62024795769658
H         4.48547775059116    9.24239714023511   -2.34407665931657
H         3.28547706421388   10.45214195696824   -2.81147601653540
H         3.25004574426320    8.84699358897719   -3.54023965582706
C         1.05050776766975    9.04538588124608   -1.90929750959838
H         0.40483067183999    8.77587219993269   -1.07735122875669
H         0.82988218857313    8.38677858275720   -2.74554785731317
H         0.82503946885356   10.06627853244122   -2.21030132678137
C         5.49865999053419    7.33384695487104   -0.32739642669866
C         6.44893939714933    6.87783658100074   -2.29966333935270
H         6.61221782930404    6.36353071415355   -3.22391639464881
C         7.08846088651100    7.94857060474695   -1.77608646650137
H         7.90101868415413    8.52565488345156   -2.16648976003559
C         6.88327438792129    9.26537984208093    0.33991604115542
H         6.30418725708978    9.08196948521242    1.25361529834831
C         4.60517200908185    5.37138915744454   -1.53209133741366
H         3.92949418942333    5.42464765037115   -0.66376279128265
C         6.51483083658350   10.63071987506382   -0.24175135015819
H         5.44480900889613   10.69293473807141   -0.42383441600131
H         7.03757772883568   10.80018916033212   -1.18144450717575
H         6.79327653283438   11.42099234071119    0.45084244054916
C         8.37296461400826    9.18759418604160    0.66473022198425
H         8.63547989960622    8.18400707321269    0.98966604744723
H         8.61295810780158    9.88372431229194    1.46443881690120
H         8.97738374394239    9.44329402478387   -0.20300481273500
C         3.79577677939233    5.42859841534401   -2.82537567006847
H         3.26676154616996    6.37380283954879   -2.91395368444082
H         3.06492649188759    4.62454767863497   -2.83006868546146
H         4.44048693303617    5.30944478871635   -3.69415953937939
C         5.41967556197948    4.08236954368415   -1.45525123274561
H         6.00105844706096    4.06456481596942   -0.53790702180687
H         6.09390135559981    3.99907756584457   -2.30591414227840
H         4.75243193442858    3.22512214968029   -1.45728528910518
C         5.17754136936911    5.30680999827516    4.12581349820300
H         4.16265540612623    5.03427175158277    4.40847683943139
H         5.81537702239387    4.46860489321596    4.40372784861165
C         5.59312551800543    6.53367013065188    4.92254910091023
H         5.58240288474516    6.32993718109141    5.99385566732869
H         4.90838935544970    7.35673051692157    4.72927377507374
H         6.59805664961095    6.85077013157055    4.65017458434512
C         7.17942372882533    5.72186784242596    1.87436254223934
H         7.37156245532787    5.81135739466496    0.80441661091937
H         7.53573489542464    6.64450509644253    2.33264561900488
C         7.99268524819547    4.55826352799004    2.41602103250095
H         9.04711066658577    4.66196519359924    2.15459957941381
H         7.63179753167108    3.61714623610845    2.00783958795505
H         7.91737915598952    4.50848835931946    3.49818545719990
C         1.76692626193135    4.63199762321066    2.34437569225268
H         2.51695966663295    4.07245926107159    2.89972301647524
H         0.83560908568341    4.54533036649324    2.90268396545831
C         1.59117734033219    3.98826813596147    0.97793223178931
H         1.24840148143767    2.95702091845480    1.06907255352091
H         2.53798163310071    3.98279304974251    0.44209427658729
H         0.86146273329214    4.53457994614864    0.38309828569440
C         0.69680925987305    7.36696033104979    1.54534497605901
H         0.83365281432303    8.44912450281342    1.53702698174200
H         0.56726175350028    7.06133621321772    0.50693375319420
C        -0.57356902718796    7.04567847345168    2.31451504178363
H        -1.42255364775760    7.60701462433273    1.92075100939842
H        -0.45712670141863    7.29729578030205    3.36599695614656
H        -0.80778951234296    5.98770376903878    2.24356961395017
H         2.10575449189516    6.84729414200811    3.76046057238974
H         5.07245190115087    4.08277249424665    1.77374786383749

