30
CSD_code = SOLCAX | q = 0 | S = 0 | Stoichiometry = C8H16ClNO3Pt | MND = 5
Pt        0.69795323123447    6.74165741191350    4.45733573989312
Cl        1.50730063351468    8.59384025577094    5.45718591992442
N        -0.05333585226689    5.24087909772537    3.13246587838198
O         1.28140705533063    7.51330213598648    2.69485698976381
O         1.66305195055120    6.97863751958710    0.57954368247814
O         1.11501864259437    3.79281932659875    5.29628418872218
C         1.34136259068180    6.69655495852778    1.70975145903667
C         1.68667639278892    4.61074941376026    6.31662683964545
C        -0.47853618091805    5.96327446303385    6.04920845144690
C         0.85521340432500    5.87172083393202    6.41944172783641
C        -1.36947850223445    5.60298982960749    2.60570078232554
C         3.11699196479208    5.00731246397811    5.92806192461713
C         1.66754302071450    3.86756181088978    7.65770155986484
C         0.95860403261608    5.22368988506936    2.07005105289238
H        -0.10491365786343    4.32038515627753    3.57001339969651
H         1.68223088357327    3.02031622998608    5.19111782313081
H        -1.00908679979920    5.06629960752420    5.74710465334221
H        -1.08638166059346    6.75404250998879    6.47906674971012
H         1.26567546185405    6.60614353708026    7.10716009645694
H        -1.69690023703104    4.88865541944733    1.84210576474005
H        -2.10338039673999    5.62258876246444    3.41069216318222
H        -1.32097728998695    6.59236401071936    2.14840529139627
H         3.09378101910905    5.61730976585698    5.01937882628811
H         3.57262267836274    5.59431009811483    6.71891803181999
H         3.72813342085242    4.12448564618752    5.74712438222986
H         2.30916268210539    2.98938631180202    7.61125349850517
H         2.02282599534695    4.51623630488421    8.45194857967971
H         0.65366582570162    3.55082251524904    7.88972449518911
H         0.60537661672740    4.70177237529648    1.17262082867915
H         1.86209307465191    4.72609234274449    2.43534921912113

