93
CSD_code = SOLFOR | q = 0 | S = 0 | Stoichiometry = C39H51AuN2 | MND = 2
C         7.48097959004579    3.69909947866040    5.53204059612657
C         7.04146838188915    3.83774952481139    6.84437236583756
H         6.30094292982829    4.58302685293602    7.10298209433572
C         7.57497657290775    3.00435666950055    7.80519532784458
H         7.24402982757181    3.09947073866940    8.83086279813078
C         8.53141517244502    2.04187696510277    7.48313659948781
H         8.92564659198098    1.40671844653728    8.26419291235685
C         8.97753188736640    1.89350221503526    6.18501492741247
H         9.71994643846942    1.14780137028099    5.93727299701038
C         8.45656699369820    2.72100432587611    5.20031947767781
C         8.67353144821995    2.86045459772121    3.79185337596453
C         9.48931913522127    2.22032700142574    2.86954117388184
H        10.14500070791953    1.41940405832655    3.18168519456372
C         9.44722989821245    2.62587476511677    1.55080646435787
H        10.07519475842253    2.14004069918624    0.81704004797451
C         8.60282478407925    3.65980537962580    1.14695311485922
H         8.59330210444218    3.95602556292649    0.10658707373879
C         7.78261645804459    4.31057234743469    2.04489450265303
H         7.13104267419764    5.11326416900813    1.72590943698863
C         7.81286175473551    3.91227788115469    3.37699076624107
C         4.51019895120989    7.40898153665421    4.56564923428572
C         3.11643067039743    8.91747100356477    5.75466862363806
C         3.03099603883467    9.29724094657514    4.27061244783837
H         3.28963830023570   10.34574392488001    4.12969885860947
H         2.01769169128597    9.16093369956845    3.89725810689711
C         4.03086210668252    8.37747919501870    3.51968352109623
C         4.39205092630657    7.08287702674363    6.94112462448817
C         3.61749597939925    6.00732734633645    7.39954070239376
C         3.90451606079445    5.46661992505682    8.64658614015106
H         3.31101128740804    4.64602188216109    9.01670045713850
C         4.94780198780771    5.94642377411435    9.41138940677966
H         5.14800069267342    5.52359532023862   10.38407190381712
C         5.77163242567288    6.92699665217409    8.89771013561224
H         6.63301946389580    7.24257798057401    9.46416432690018
C         5.52417485311313    7.50172708268024    7.65741975626368
C         2.57467031472286    5.32452979599092    6.54444111015213
H         2.43006622292886    5.89753734952464    5.62589024603042
C         3.10143553233127    3.94031908643827    6.14732396471441
H         2.39771826285784    3.45180841190357    5.47740937121239
H         3.23835720730344    3.31140338072195    7.02304005367388
H         4.06109914799058    4.02457137960382    5.63992160216795
C         1.22440762260225    5.17583777980469    7.25030496386995
H         0.86701369274844    6.12628222771028    7.63847210184437
H         1.29343718104187    4.47606742107497    8.07868226005442
H         0.48598118165261    4.79139049150534    6.55003590001980
C         6.55104044460075    8.46193503052691    7.09970606755208
H         6.18965046782933    8.86440217190975    6.14982122407834
C         7.84722255316238    7.69656507304605    6.80889273381615
H         7.66403925588110    6.88086097060872    6.11157883169762
H         8.26328985697500    7.27474817102062    7.71980151800097
H         8.58301497235547    8.36695447879698    6.37001478660816
C         6.85150988743052    9.62622371254056    8.04831669729747
H         7.48992130857744   10.35137287570783    7.54815916457944
H         7.37511559277377    9.27755100339955    8.93422765948078
H         5.94379605400603   10.13136717522358    8.36828188497556
C         3.69296108532278   10.05088839979684    6.60136376918460
H         4.63354511950094   10.41254988234460    6.19617913257814
H         3.84857997780635    9.71603696549120    7.62407968512762
H         2.98883113205975   10.87966231258175    6.61624025611178
C         1.75764743965731    8.53647195732157    6.33810383583649
H         1.11304341065466    9.41251014381882    6.34391356596575
H         1.87064025166182    8.18657782717548    7.36151952375405
H         1.27255446757276    7.76226865857062    5.75042206380925
C         5.23651664716143    9.24032754102357    3.07256165156345
H         4.83843948266241   10.10802874359670    2.53814467491016
H         5.75649087055716    9.61025528222386    3.96070363029545
C         6.23700670371614    8.54446321937828    2.15373943018521
H         6.68443848165534    7.69805712002838    2.68612030817506
C         5.50061283667470    8.01480758207626    0.92843054521952
H         5.07413496017522    8.85177033986139    0.36785988452009
H         6.20069256400177    7.49571686432268    0.27127292572821
C         4.39668292515791    7.05776178977025    1.35729598511741
H         4.84948289181130    6.21192392554925    1.87430927458401
H         3.88093962206471    6.68016546977811    0.47250226211011
C         3.37520107921676    7.74375701560220    2.26582825638128
H         2.98005152727877    8.60098591369909    1.70423107185679
C         7.34905115175207    9.51191210539763    1.75890652552991
H         8.06845541069510    9.01419420562034    1.11365472203080
H         7.87460080903764    9.87428983733039    2.63977458244258
H         6.94243635419881   10.36826152240381    1.22338464035358
C         2.16970073321960    6.82497962335115    2.58539435464215
H         1.74481789120505    7.13314662248629    3.54683053635688
C         1.08007310540104    7.00576432130019    1.52651448329778
H         1.46008292423536    6.74731084442738    0.54110595190312
H         0.72639047718882    8.03484183586535    1.49880247950210
H         0.23136592050394    6.36028714549765    1.74187886648078
C         2.51278506981673    5.34115651582445    2.70421017023022
H         1.64531502395361    4.79746277858469    3.07416226101316
H         3.33789493337813    5.17977974953914    3.39393754703500
H         2.78292532183585    4.92211381620978    1.73930394649690
Au        5.78489170801692    5.90441316743980    4.43494421883358
N         7.09479785445342    4.41206849199009    4.42913162499975
N         4.03218552955172    7.75263213000999    5.72638972066043

