41
CSD_code = SOLGUV | q = 0 | S = 0 | Stoichiometry = C22H4N14Ni | MND = 4
Ni       -0.00000536364767   -0.00000477064431    0.00000087708532
N        -1.88032962360672    1.80717702531504   -1.76776474409382
C        -2.48327647106243    0.67263682622708   -1.31579386440675
C        -3.81894832914053    0.73737386032058   -1.84662973477816
C        -3.93966567623968    1.92649589535877   -2.59761466764026
C        -2.70089801738142    2.59549912638843   -2.53866195275354
C        -1.92643463408004    3.71047467430803   -2.91620743852617
C        -0.64363056779410    3.55119030344038   -2.34900845505002
N        -1.82774190867056   -0.17407931406011   -0.57081995234906
C        -4.79645905664757   -0.23772530124369   -1.62857790823883
C        -5.09040100581986    2.35810855060969   -3.27729548129232
C        -2.34676966179370    4.78865247159773   -3.71200517430259
C         0.45109827472252    4.41335932931501   -2.45908171066682
C        -0.62741563112466    2.31728081868753   -1.60931557703126
N         0.26283786605437    1.67864907733562   -0.90133644962343
N        -5.56002965292971   -1.06801597201622   -1.41791477141630
N        -6.02813900705287    2.71167918161747   -3.83155754191854
N        -2.69104401059120    5.66741184145236   -4.36069894860004
N         1.37986652808345    5.08473873991948   -2.51705598580370
H        -2.40068296099752   -0.97546456735354   -0.30583113859747
H         1.15383940354691    2.17428820631745   -0.86764071644606
N         1.82773173254759    0.17407583650863    0.57081750595416
N        -0.26284192860136   -1.67865821193845    0.90134117464173
C         2.48327083120884   -0.67263738861954    1.31579147532814
H         2.40066898332716    0.97546230953694    0.30582554740847
C         0.62741491449488   -2.31728591909220    1.60931900169046
H        -1.15384212188173   -2.17430074996229    0.86764898673481
N         1.88032808775317   -1.80717838490511    1.76776499100950
C         3.81894374287866   -0.73736943063071    1.84662395206269
C         0.64363548961978   -3.55119456987055    2.34901413707355
C         2.70090047562173   -2.59549694360179    2.53866160110421
C         3.93966599169423   -1.92649060908401    2.59761088129299
C         4.79645143964983    0.23773215678739    1.62856769147104
C         1.92644051668286   -3.71047447377975    2.91621032678373
C        -0.45109045258064   -4.41336628308024    2.45909166147889
C         5.09040430497512   -2.35809852430317    3.27728956250933
N         5.56001861022125    1.06802626900437    1.41790287363167
C         2.34678073764275   -4.78864922199696    3.71200961926563
N        -1.37985565903455   -5.08474877576144    2.51706778371136
N         6.02814452312139   -2.71166518387311    3.83154995278932
N         2.69105928683176   -5.66740790423083    4.36070261050835

