37
CSD_code = SOLHIK | q = 1 | S = 0 | Stoichiometry = C10H20AgS6(1+) | MND = 4
Ag        3.71796364712571    3.04871073230459    9.37412906462758
S         1.53621755213057    4.97186182530619    8.88052668893138
S         3.34013337298463    5.16571325458799   11.34008138144971
S         4.13983558228988    1.71102662157960   11.68069027858467
S         1.58333360182960    1.10912733680335    9.22001002022119
S         3.67451393340358    1.34341773804993    7.00819907270414
S         4.78796970477396    4.59634947431376    7.45947835815517
C         1.92789055290254    5.85979497795323   10.42204111914490
C         2.47245293858665    3.89090660100860   12.33657619687013
C         3.46319277781557    2.89106868569231   12.89959834327638
C         2.80635196839191    0.44350252420749   11.62295232457903
C         2.56124221175251   -0.07883373725844   10.22214051663511
C         2.09866499829969    0.60474372998458    7.54943829574928
C         3.04654767877660    2.82052288220235    6.11451502731089
C         4.15031246917592    3.84376829090359    5.91903055655467
C         3.81913452597295    6.14118922903573    7.62002741229851
C         2.30637406190625    6.03706696114308    7.61151261553675
H         2.16994047018552    6.89159962805590   10.18120198353044
H         1.04560300252525    5.81828506264835   11.05619214500036
H         1.97375699571634    4.41164470903220   13.15617140656038
H         1.72812904655809    3.40899754836664   11.69613399209864
H         3.00581565228855    2.29749258969972   13.69103828735860
H         4.33449967235751    3.40541180277875   13.30704882096455
H         3.14078058756355   -0.37474146371443   12.26188103523937
H         1.89956292730471    0.88133698354625   12.03805738117429
H         1.98146153471802   -1.00170956698345   10.26978505846490
H         3.50411992007411   -0.25916338070987    9.70327198876097
H         2.22023031502504   -0.47561689137508    7.53824990784049
H         1.30961599055885    0.90198292125107    6.86377726834318
H         2.69495341466918    2.47817391643744    5.13923746628708
H         2.21105196798849    3.22280476570593    6.69151882496275
H         3.81385210504895    4.65691971536158    5.27654760595681
H         5.02002900399257    3.37096917432546    5.46080240267181
H         4.18337049996396    6.56691408823304    8.55632844708133
H         4.12979628483805    6.79018821866728    6.79946383974673
H         1.94020328705714    5.63091715862419    6.66828090613787
H         1.87929574344704    7.03285589223132    7.74076395919133

