70
CSD_code = SOLHEH | q = 1 | S = 0 | Stoichiometry = C23H43CuNP2(1+) | MND = 3
Cu        4.74565548450902    1.23279685001479    9.77322452056405
P         3.76863792575698   -0.55693879247739    8.77780527653998
P         5.31745617537163    3.01698098927020   11.05342580464302
N         3.66759369882024    0.56058846787880   11.55961531940405
C         2.72534294153741   -0.35317505756258   11.35111394690492
C         1.57488653867109   -0.39025090371855   12.12905622135637
H         0.81687083237049   -1.13723549594948   11.95422711027787
C         1.42582548472346    0.54776291075886   13.13836830857291
H         0.54250417981727    0.54452030901610   13.75781700605171
C         2.42238361617093    1.48793651606699   13.34775524631019
H         2.33291753957973    2.22036102804666   14.13433653049689
C         3.54250783131706    1.46415468747862   12.52634387993202
C         2.99945671417388   -1.35654869204825   10.26923109032793
H         2.09966271255655   -1.91766957991629   10.00966224986101
H         3.74241027487179   -2.05959998975514   10.65767876475170
C         4.83672883055088   -1.94771764726285    8.08232820052388
C         6.08526381177075   -1.92570955140360    8.97312282291205
H         5.84385201894170   -2.11045076659359   10.01917437898112
H         6.58522368687837   -0.95902051106271    8.90319976335437
H         6.78538839324806   -2.69430943467501    8.65280664936475
C         5.25323694787065   -1.58585543733712    6.65702190832651
H         6.07170458211772   -2.22913237310000    6.33924544891054
H         5.59701392383720   -0.55271181897955    6.60639690155096
H         4.43454566866711   -1.72341890025559    5.95572324894441
C         4.19666965716818   -3.33283396598698    8.11396215811454
H         3.28037272517191   -3.36974957848361    7.53353346300038
H         3.98072724342123   -3.66012456553112    9.12786273261533
H         4.89246164462107   -4.04906861856012    7.68003510207592
C         2.28155689552353   -0.13095519796563    7.69540421817083
C         1.34247021529242    0.66665951960936    8.60702141765946
H         0.58143557222677    1.16456294289737    8.00959773284606
H         1.89634695041997    1.43446709578868    9.15166532814110
H         0.83613829498607    0.02925791218722    9.32757267270251
C         2.78349862474709    0.80188847350630    6.59025225838762
H         3.40152794613361    0.27801651933392    5.86774328000365
H         3.36861406897354    1.61719328944332    7.01884133000132
H         1.93895504984365    1.23287379052137    6.05631499676024
C         1.54018369260108   -1.32142420221300    7.09962846005921
H         1.25121394274289   -2.04086300092676    7.86321514163584
H         2.13832117455665   -1.82556410769967    6.34551736869812
H         0.63042893458072   -0.96871650715686    6.61644493936072
C         4.68958082133192    2.41658303468624   12.69700021911393
H         5.51309653425069    1.85994912069336   13.15426958050327
H         4.42521750456806    3.24442840632553   13.35771105950281
C         7.13913197719365    3.35002844008417   11.41296977258568
C         7.42303606668432    3.99963509905897   12.76442807263879
H         8.49641562080779    4.15603236987748   12.85833981370294
H         7.11056588987946    3.36961272790071   13.59341726455323
H         6.93922317745918    4.96642593585391   12.85976403112561
C         7.72027147189286    4.19693690580063   10.28112762678080
H         7.40585469689194    5.23439091695635   10.35730261052496
H         7.41827581769372    3.80260614515457    9.31084150889204
H         8.80747297879465    4.17716216077172   10.32894103571895
C         7.78049704298716    1.95787060303955   11.35511111583012
H         7.64045090588796    1.51564952983838   10.36804920297522
H         7.35580840025580    1.28154946808521   12.09602860654017
H         8.84902130338193    2.03142388980058   11.54583583627498
C         4.30886026039535    4.58402514098341   10.74815686977625
C         2.84640897162580    4.16068022358461   10.92456143521715
H         2.18852573238899    4.92711329664367   10.51983451939274
H         2.58780841685750    4.01867913124327   11.97080314188779
H         2.64656025332487    3.23057253619182   10.38829142274596
C         4.52163755355957    4.97529082152207    9.28355389883234
H         4.35026110262350    4.11615313337819    8.63305981090683
H         5.52595666704238    5.34679797274527    9.10521211463364
H         3.82119708463711    5.75951788587325    9.00343519346353
C         4.62309160713936    5.75561516858693   11.67050096291543
H         5.60961611542184    6.16542330033450   11.47217729974073
H         4.56041538734866    5.47171268151070   12.71915646746761
H         3.89674819063070    6.54835734812513   11.49872630647450

