84
CSD_code = SOLVEU | q = 0 | S = 0 | Stoichiometry = C37H42AsMoO2P | MND = 9
Mo        0.27477171234157    0.02141736383184   13.24632590410459
As        2.99320171827821   -0.30524668254089   13.20326918769685
P         1.85130545310899    0.79672655036100   11.66995229831457
O        -0.14501399258560   -2.65185129685531   11.79003520395933
O        -1.23901705492469    0.40583084203267   10.59080450402212
C         0.08632403867909   -1.67813845715660   12.37309624788578
C        -0.67870590982378    0.28037439835521   11.59344462759715
C         2.57126459344200   -3.78690088136798   14.12936820600334
C         3.01114826293454   -2.82542031727464   15.23291799476923
C         1.07360370141952   -4.07063899647801   14.26462258040000
C         3.33338133044392   -5.11034920980996   14.31811533198541
C         3.10879750172670   -5.64371467818957    9.47396741770352
C         2.31216768073632   -6.75257161682714   10.16204804728049
C         4.44456297321482   -6.18073093787889    8.94852572393966
C         2.29829881610249   -5.03855285827570    8.32175259419066
C         5.34918167157820   -1.24869474239247   10.64831380019765
C         4.93681229856450    0.08402554109324   10.02501658731653
C         6.14467885902904   -2.03458922617416    9.59844063036870
C         6.25675860741769   -0.97338882152629   11.85517618076763
C         3.46860529399399   -2.01579996547897   12.35002116582919
C         2.94560661419930   -3.27913221916893   12.74696845987267
C         3.06630884672686   -4.15102423199933   11.70225705281761
C         3.38575172695917   -4.57190810021150   10.45739986957690
C         3.95163723028750   -3.34210341288689   10.56666431413000
C         4.20044962500503   -2.12385625157580   11.12452355619294
C        -0.91903875371636    1.60261952823402   14.41488119644705
C        -1.40766256549805    0.31564518024980   14.77304726033185
C        -0.36678370643485   -0.36312393996272   15.45081755409665
C         0.75446485636522    0.48810337190859   15.48688965172035
C         0.41303264422033    1.70251322232854   14.83819170798735
C         2.14880938838628    2.57853638108794   11.82003754891030
C         1.11596191996948    3.43821980827955   11.44903064712338
C         1.23520349866240    4.79673696628980   11.66627879100289
C         2.37810441342832    5.30464187681768   12.26699161770789
C         3.40067351529172    4.45211278525760   12.64903213291632
C         3.28841529892671    3.09059947460833   12.42762231409267
C         1.82891318628057    0.45033401175270    9.89347918842331
C         1.57845304974929   -0.85543736613317    9.47882998117903
C         1.51590369985853   -1.14969963765311    8.13067023295383
C         1.70192852588347   -0.14954531374305    7.18943856475377
C         1.95816005732670    1.14825468930210    7.59988098876354
C         2.02678976629119    1.45210678820606    8.94678888503116
H        -1.51232112084958    2.40152774781249   13.98743800297742
H        -2.44402185957651    0.00035081710430   14.72865647416898
H        -0.46722605715778   -1.30299009005115   15.97999022984286
H         1.65525752306979    0.32915311581482   16.07201879345740
H         1.02243584532421    2.59956037963822   14.82783162489406
H         0.22308643468938    3.02522722113321   10.99410902270071
H         0.43548756443716    5.46232678262670   11.37526714717163
H         2.46736458030529    6.36667063895738   12.44175075923345
H         4.28756459486794    4.84829379667136   13.12167694899212
H         4.08521686510167    2.41496233941790   12.72765911487011
H         1.43191208095774   -1.63625861589034   10.21308503111982
H         1.31376391065655   -2.16107519645271    7.81241339835454
H         1.64571265530165   -0.38162223393824    6.13618804624228
H         2.10497479351911    1.92923923078009    6.86797321669965
H         2.23719958409577    2.46458682451883    9.26320636058159
H         2.88647263060798   -7.18188380375609   10.98029915535690
H         2.07390174087315   -7.54211328306252    9.45310969556840
H         1.38432211421816   -6.35384734468348   10.56589310037048
H         4.27007501916908   -6.95143214107787    8.20114886453953
H         5.02871928411407   -6.61036883137630    9.75980972339929
H         5.02286269285324   -5.37843082598565    8.49547192962334
H         2.08834014867053   -5.79760655620672    7.57123943317029
H         2.85572997126381   -4.22881560616374    7.85503234995766
H         1.35395260111197   -4.64466345090517    8.69230232601328
H         5.82539046425330    0.64342273736694    9.73726942289391
H         4.37260103770855    0.68968698353779   10.73643338164745
H         4.33366807295039   -0.08003020305453    9.13594992942778
H         7.00535135866558   -1.45659890792647    9.26888115460049
H         5.52023670590884   -2.24834801132196    8.73419262544737
H         6.49678501980911   -2.97721363342796   10.01081413085682
H         5.72437459315335   -0.37710025395167   12.60357001389597
H         7.14613152476885   -0.43071715975014   11.54215803539541
H         6.56504435956574   -1.90875081734856   12.31820190034288
H         2.98297215500046   -3.33224839750942   16.19545806416962
H         2.34349454697750   -1.96570491793706   15.28333363420302
H         4.03032894315747   -2.47057405955694   15.05430103007837
H         0.72760929879700   -4.68773788523482   13.43962229150209
H         0.50517251238441   -3.14296005874358   14.25994029818354
H         0.87569620320600   -4.59256664518813   15.19907440091220
H         3.12880653813264   -5.52898790305872   15.30134462925477
H         4.40525361121596   -4.94696889727646   14.22620613651937
H         3.02888906282804   -5.83207250297884   13.56434242112691

