43
CSD_code = SOLXAS | q = 0 | S = 0 | Stoichiometry = C14H25Cl2NTi | MND = 8
Ti        1.65307994537628    5.97083422812544    2.59507759652827
Cl        1.68800984516579    5.11120021249089    4.60301890633923
Cl       -0.27158665601573    6.99557224563100    2.74990007310808
N         1.31738884202229    4.58370981618978    1.47432057491164
C         0.49345949662390    3.40303571709285    1.66031220807787
C        -0.73875762668312    3.73476404543775    2.51252565004434
C         0.02550505052099    2.89367688251741    0.28668105935805
C         1.33465825653906    2.31619499990167    2.35901063438283
C         2.44796646538916    7.96905221968004    1.77370945639473
C         1.64622099615885    9.14476786142614    1.30174597087977
C         2.98188822036030    7.76975865986050    3.07441198667068
C         2.74313690298922    8.65259867446086    4.26399915597672
C         3.81174927863096    6.61679425108218    3.03345278467783
C         4.71304170997986    6.11213123697616    4.12133494163569
C         3.78323742395323    6.09696140790916    1.70772015292260
C         4.63330405030051    4.94934201812981    1.23961423747152
C         2.93811951751093    6.93475370213557    0.92808965731861
C         2.68498300495042    6.87166094134399   -0.55216503986756
H         1.89224916265968    4.43760903757024    0.64411726956824
H        -0.44057207954641    4.07360573006721    3.50638152621153
H        -1.32288040104534    4.52045282238909    2.03146121252022
H        -1.36278274139190    2.85002445284416    2.62035617786982
H         0.87808248969876    2.60524784956042   -0.32738523446823
H        -0.62260160501191    2.02888910884945    0.40100157947156
H        -0.52626564480357    3.67898183347056   -0.22762159602187
H         1.70395372441868    2.70147574960533    3.31032359924595
H         0.73619787150354    1.42785957197027    2.54359168546570
H         2.18602159530616    2.04095252023523    1.73681075822608
H         2.30528127153920    9.87686421359653    0.82744757690813
H         0.89632237933338    8.83722189112074    0.57251731338035
H         1.13626972500125    9.63209167152153    2.13028073475884
H         3.43102052467807    9.50169161646652    4.25603482197445
H         1.72325954457658    9.04121909167056    4.25820431264467
H         2.89255867168804    8.10237729398073    5.19343479333101
H         5.72397864220679    6.50237745232514    3.97646090374110
H         4.36478656315060    6.42758718776486    5.10317141581882
H         4.76264766730510    5.02282018737691    4.11175975550578
H         5.69027150494131    5.20307498610252    1.34555439648746
H         4.44226504355981    4.05333014245557    1.83478569374358
H         4.44779302422135    4.71668078209321    0.19241588623464
H         3.07724746085576    7.76963057202361   -1.03411924948108
H         3.17164983785965    6.00897163586603   -1.00396943699730
H         1.61424104352585    6.81755347868195   -0.76357590297267

