52
CSD_code = SOLXEW | q = 0 | S = 0 | Stoichiometry = C19H29ClN2Ti | MND = 8
Ti       -3.59777129744785    6.84570347431222   -4.22612481369241
Cl       -4.05337653709544    5.02018694987052   -3.04065461852152
N        -4.90615202976017    7.81224377815772   -3.82020626856743
C        -6.08860615344627    8.10778711231440   -3.12386059180947
C        -5.80523473270529    7.98292731251427   -1.60865257012671
C        -7.17060870327944    7.08183684167360   -3.52674234677616
C        -6.57942032281798    9.53503362839115   -3.44319326873793
N        -2.38400392020937    7.73958138912641   -2.91935566855210
C        -1.74974479240959    7.02088071973957   -1.98669695885612
C        -0.96475404766980    7.59953573797497   -1.00306050240033
C        -0.81360898630248    8.97789641822301   -0.98194335655380
C        -1.46410852638509    9.72343916307813   -1.95957207602192
C        -2.23470086747408    9.06943024505095   -2.90112624660161
C        -1.73991194246897    7.09068916436682   -5.61649897393407
C        -2.03656898111264    5.70368323037461   -5.55050177853817
C        -3.34122912808376    5.50431793249283   -6.05093716279342
C        -3.86933154265888    6.77461613619050   -6.43140299031213
C        -2.86764230102948    7.75365260773954   -6.17421742195188
C        -0.40126031619835    7.71729812291460   -5.33991343549645
C        -1.12078112688230    4.61076876788080   -5.08080587606940
C        -4.02607350348179    4.18421351064765   -6.25848253771600
C        -5.15832078952677    7.01548272938805   -7.16534889645952
C        -2.97869918036353    9.20021397641983   -6.56908759352069
H        -5.42044269946396    6.98305240641252   -1.40347275138674
H        -5.05104225126660    8.71378163159397   -1.31427009441822
H        -6.71147079411858    8.15019662181656   -1.03121993127086
H        -6.78215841417039    6.07710068948431   -3.35471168849249
H        -8.07830138389410    7.22577805371174   -2.94523077149947
H        -7.40001373655424    7.19131855935177   -4.58583820555686
H        -5.81848160657396   10.25906041681763   -3.15668723254370
H        -6.76355675771185    9.62866515411868   -4.51166769541748
H        -7.49812181671553    9.75376293756709   -2.90466544702815
H        -1.89531339778673    5.94410386979268   -2.02214584815807
H        -0.47943954555896    6.97715869415226   -0.26734953595537
H        -0.20969339085566    9.45958067244351   -0.22855884991171
H        -1.37611187844544   10.79864763116725   -1.98321860083232
H        -2.78304628092287    9.61175841815859   -3.66642284549989
H         0.23070429821633    7.66251238437975   -6.23102908977912
H        -0.49794581860611    8.76955222560838   -5.06600268836833
H         0.12494290266471    7.20800176164546   -4.53033879102522
H        -0.83195519816370    3.96887011325100   -5.91665358914481
H        -0.21009983135159    5.01748421976141   -4.64231481151735
H        -1.61347414528008    3.98320381968784   -4.33392904642729
H        -3.94840664713318    3.87580907039281   -7.30548811644816
H        -3.57427328091238    3.41038998992674   -5.63947964149265
H        -5.08624022148610    4.24902640051091   -5.99999608870783
H        -4.99244387860696    6.97968604610060   -8.24660831440879
H        -5.89862381030509    6.25618027045083   -6.91000718229402
H        -5.56546980585821    7.99548671540329   -6.91399785746485
H        -3.04576968816022    9.28930954442979   -7.65638265251058
H        -3.87715672645939    9.64975948378742   -6.13899458552343
H        -2.11018446571114    9.76994324927387   -6.24113209288994

