56
CSD_code = SOLYUP | q = 0 | S = 0 | Stoichiometry = C27H23Br2CdN3 | MND = 5
Cd        9.92581574511566    6.88822186073853   14.14609132779307
Br       10.08225372992622    4.48744466142907   13.49728432161420
Br        9.81025737807910    7.49487356249793   16.60195651675892
N        12.14376680458400    7.76034343170655   13.74103452892261
N         9.93513911909377    9.45726109544317   13.46518515360894
N         7.78386710117313    7.65216957583418   13.50961748786607
C        12.32037807675440    9.07178196822398   13.89386832516126
C        13.58068803939554    9.65202713595765   13.79884804957321
H        13.69640929723463   10.71733559056676   13.92780137232997
C        14.67649351143329    8.84448419637278   13.54659881790966
H        15.66502142105467    9.27243724011011   13.47234846285533
C        14.48137945250620    7.48065199180766   13.39122465655104
H        15.30720190889849    6.81602960658458   13.19598212567118
C        13.19251301221094    6.98523649890333   13.49588388219844
H        12.98513611750012    5.92726771787382   13.37961046995982
C        11.09996035848986    9.88658148276734   14.23262327205959
H        10.89942424765086    9.71657952290617   15.29688593004818
H        11.31343020840595   10.95859788773749   14.09273321987721
C         8.67712170961230    9.82737488630925   14.10726408461147
H         8.41564471491967   10.88044321719719   13.92610308681954
H         8.79170100511897    9.69107085327416   15.18930230709101
C         7.52878761085976    8.94548917829000   13.69223399160008
C         6.23921053329567    9.45527115118105   13.57731926139257
H         6.05625225818950   10.50521072514680   13.74486131189963
C         5.20584445809386    8.60220521334831   13.23737482879341
H         4.19864939841551    8.97781586641918   13.13768149608879
C         5.48728586617184    7.26118080359336   13.02452900910887
H         4.71287756242842    6.56238560604897   12.75290384211232
C         6.79357406231640    6.83317947268251   13.17708118624340
H         7.06487928200529    5.79390475801614   13.02826158779399
C        10.01887460270031    9.99822439467040   12.09995837938798
H        11.00265577120726    9.74167847607682   11.69941902710813
H         9.97119134311781   11.09583009107257   12.13618916652751
C         8.93458464705264    9.43370125742754   11.21941213271611
C         7.77169178278707   10.17303987855301   10.93489828389222
C         7.58691882024411   11.53842506254456   11.28697117095708
H         8.38766858446682   12.08929736161934   11.75571789114587
C         6.42508191866295   12.19958328008047   11.02779303940475
H         6.32258420857780   13.23871993838633   11.30514609730942
C         5.34975523228668   11.54911756596354   10.39216361059543
H         4.43573343319509   12.09173339153379   10.20336093128757
C         5.48547309095372   10.25192906661378   10.01033980863434
H         4.68233452381263    9.73704156131322    9.50300804657849
C         6.68319302721071    9.53324073380308   10.25658473453404
C         6.79823681417172    8.20392801805250    9.87163374321328
H         5.95793141331330    7.71834891159533    9.39514722445313
C         7.96691535079601    7.48402198017167   10.08484959244610
C         8.07435408415650    6.13161185139186    9.67069071917170
H         7.21915079407770    5.68016100987970    9.18851008165870
C         9.21905694055603    5.42549261031775    9.86811566636899
H         9.29590846188415    4.39356798778528    9.56372186907864
C        10.32664932048666    6.05043687177023   10.47397631395943
H        11.24184321951648    5.49020301579088   10.59244601299543
C        10.25096538437684    7.34016583800197   10.91075548601758
H        11.13373182910571    7.79111592145520   11.33847902755254
C         9.06595141034868    8.11102716516070   10.75461802869328

