56
CSD_code = SOLYIE | q = 0 | S = 0 | Stoichiometry = C17H28B9RhS | MND = 9
S        -0.59615586919747    9.95536634809519    3.68246559225875
C        -0.66551078500285   11.90504100867566    6.13928203317828
C         0.28484545443654   12.85361784847862    6.93877391409094
H        -0.06763912483757   13.85215621231927    7.17312929335775
Rh        0.54877597884851   12.87688158805230    4.55735363888855
B         0.21531368704578   10.74268494374878    5.24786658463044
B        -0.45650630402376   10.26372855366668    6.78738868920521
H        -1.40854652624090    9.56652306876123    6.83304993295311
B        -0.37858851663079   11.63050969321593    7.89903061800988
H        -1.26774860699508   11.91578129718748    8.61401826322282
B         1.83998076540673   12.62380379738445    6.44458063353302
H         2.59702135189622   13.53281032728989    6.45417559082925
B         1.87345795193238   11.18750769796694    5.36487551210219
H         2.73984424570264   10.94419598016611    4.59150779146087
B         1.20883566495582    9.81105373414651    6.36005737756828
H         1.52519929279381    8.69518498207865    6.12014179870916
B         0.84871209352078   10.37363455390704    7.99079492357903
H         0.91622939816763    9.65358219982362    8.91991937794409
B         1.29855255639406   12.07580195993765    8.07952726943017
H         1.63458032163610   12.70199069427500    9.01690832281981
B         2.29144904315822   11.01260268611911    7.08802371596477
H         3.39625072583769   10.74635664175404    7.40038842568654
C        -2.07440791285935   12.31413038858643    5.88451297368019
C        -2.96312671953986   11.46483744631120    5.21795842533068
H        -2.63729380106858   10.48749622847673    4.89662075014671
C        -4.27097167664104   11.82891224022171    4.96405178519471
H        -4.92044057524015   11.14345332338770    4.43833748465258
C        -4.75256380128997   13.05545819185730    5.38525554988888
H        -5.77445755506939   13.34244767615132    5.18881557327113
C        -3.90301198598079   13.90148952365107    6.07620248189120
H        -4.26340407241830   14.85729621348300    6.42961007620420
C        -2.59352744169286   13.53782911016878    6.32342063176816
H        -1.97583281739625   14.23043971781602    6.87413158632612
C        -0.86508770594724    8.18558922440881    4.09725841182728
H        -1.74795404593189    8.11596233639709    4.72283842750160
H        -1.02202900107553    7.63087295835699    3.17832882580174
H        -0.00475968974360    7.80976903468867    4.63973401046732
C         0.85207811189412    9.68224229501172    2.61834210921873
H         1.20461201190976   10.65831109330107    2.30274070313514
H         1.62844522946697    9.17464673729734    3.18028018779725
H         0.54602982729099    9.09586027202055    1.75715906154574
C        -0.71410418113966   13.28839418078683    2.83856759867631
H        -1.55272120473294   12.63675308545439    2.63603963603246
C        -0.72352238611545   14.40764218746066    3.66682037154683
H        -1.55798262644440   14.76687205191919    4.25107016862532
C         1.59444150829879   14.47138187163955    3.65080763858855
H         2.44359453161424   14.89368589949989    4.16789547809727
C         1.61958226212202   13.33943463681036    2.81499978156595
H         2.50915597672595   12.78238140043044    2.55446796604719
C         0.43829066951286   13.50717846408684    1.85801326778767
C         0.40806352848347   15.30837917613333    3.18824438687556
H         0.37985355353655   16.34648578601244    3.50953019295478
C         0.40122293993739   15.03109027012611    1.67836523251667
H         1.28066101230247   15.42330833470917    1.16724758664897
H        -0.50450452550622   15.38184174880532    1.18231227638607
H         0.43811976393496   12.89991107748099    0.95486006257645

