56
CSD_code = SOLYOK | q = 0 | S = 0 | Stoichiometry = C17H28B9RhS | MND = 9
Rh        1.49161922340721   12.28865368111301    9.98162630333641
S         4.01898438185734   14.17605455253497    9.05681206294811
C        -0.14718784359728   12.89453849913374    8.39991665127269
C         1.31752256723951   13.26349631892066    8.00368003212420
H         1.86077054174338   12.59175031405560    7.33906541666659
B        -0.38233579392410   13.54154486062454    9.94299131107227
H        -1.14154450663776   13.04467509550298   10.69958983445462
B        -1.14234659965882   14.28534033604126    8.48522060301271
H        -2.29407999488455   14.12905309558020    8.30560003625532
B        -0.01260479889117   14.07112362994454    7.16490318350466
H        -0.26966837448767   13.71792166144034    6.07377729479088
B         2.09738085345123   14.29576030665271    9.06324741283840
B         1.05143668191074   14.52802041341318   10.39521537555344
H         1.34929869584937   14.81494178464603   11.50656430646164
B        -0.38958107169425   15.31713418812567    9.71196275575773
H        -1.05212078973542   16.02260540302716   10.38453306539767
B        -0.13744555413255   15.63968966220748    7.94729113224052
H        -0.58704061515424   16.56914210175474    7.38208580650468
B         1.45540937425042   14.94597784119277    7.56555415366857
H         2.19700600792105   15.22412689977757    6.68771332270853
B         1.19459417495987   15.81014453628466    9.09697249758483
H         1.70818819298946   16.84760913580805    9.34151211773848
C        -0.69862376801756   11.57871423475728    7.98937290371249
C        -0.16647320409843   10.83524214491473    6.93132477780969
H         0.66850904509433   11.21298043547131    6.35772937831610
C        -0.69528118510949    9.60923456773505    6.57451509831426
H        -0.25447154527544    9.05767626564649    5.75499276705588
C        -1.78436946922680    9.08996665391082    7.25135048938747
H        -2.19500428350406    8.13047972015328    6.97293488650337
C        -2.34751765760271    9.82639648389412    8.28034388307711
H        -3.20931147466266    9.44288748017003    8.80800265945406
C        -1.81781807045967   11.04959160289297    8.63894045734296
H        -2.27434502307459   11.60863618979974    9.43974593044929
C         4.61639197145125   15.83580447486317    8.55949833865087
H         4.51822287725270   15.91349709469888    7.48279725768004
H         4.00828203229703   16.59652476666203    9.03656229100547
H         5.65904109284507   15.93339174701772    8.84252604215618
C         4.38813979916635   14.36193817510197   10.83056101180116
H         3.99084065711435   13.48630958616318   11.33405169863378
H         5.46394913279260   14.42289821696657   10.96655008591032
H         3.89673620532433   15.25274742690885   11.20723158744942
C         2.00850397869979   11.58721206642613   11.89209809175429
H         1.99076537093444   12.25467597975738   12.74286259235560
C         0.90822439345479   10.85566148615640   11.40807894553470
H        -0.09954746150549   10.89200511420133   11.79521968964947
C         3.24439977672673   10.76739642068780   11.51357537391181
H         4.17204831471256   10.99378632995405   12.03666656455962
C         3.23546101379931   10.97395214206353    9.99816716460813
H         4.11669547468511   11.24752497108657    9.43391955412372
C         1.48789685800238    9.61310184287910   10.74233261328709
H         0.80168629009741    8.79299917622795   10.54806596316926
C         2.13858991058645   10.26133989175629    9.52686859165831
H         1.96923470221752    9.91255364988729    8.51787201806797
C         2.71076910086407    9.33243030466251   11.62736832325088
H         3.38683170913629    8.58878126394609   11.20370276143281
H         2.44588868250023    9.05485777479805   12.64773553203380

