58
CSD_code = SOLYEZ | q = 0 | S = 0 | Stoichiometry = C27H23AgN4O3 | MND = 4
Ag        6.80242670162309    0.52050940832002   10.60078136749023
O         5.05648925412430    2.22355620572276   10.36693249007898
O         4.41636108798425    0.30940155477949   11.04690886931151
O         2.97329419696663    1.80368909104258   10.56015729539456
N         8.32169297713850    2.40047046969724   10.53261079975070
N         9.25572811494844   -0.25548387979592   10.39061063866036
N         7.00138149878595   -1.74049304916508   11.35248005519228
N         4.12445485699336    1.45418772846835   10.65800606485793
C         9.63178486408081    2.18503346109127   10.51726532456103
C        10.54300629500236    3.19206967148092   10.22077903941202
H        11.60326521978206    2.99186724993587   10.24475824981562
C        10.06688556143378    4.44803950459447    9.88751033145751
H        10.75312112193684    5.24598969989500    9.64544784145101
C         8.69745956708584    4.65480631047698    9.86851729567436
H         8.28261866819830    5.61456168323721    9.60594310483436
C         7.86317324949428    3.60127021011124   10.20598718205290
H         6.78806294672816    3.70592219662593   10.22424369551634
C        10.10246139916283    0.80880705716620   10.91049344792708
H        11.15422849754122    0.67991809216988   10.60516717922274
H        10.06295852058066    0.76705017115864   12.00394882835949
C         9.38343427304876   -1.48563417522786   11.16518103048543
H         9.46350899434652   -1.21814240494477   12.22222707925543
H        10.28073476252824   -2.05986368946501   10.88346058757539
C         8.14813147009558   -2.33468363853780   11.01999808104858
C         8.20503758866995   -3.65392268854470   10.59366341383470
H         9.15256342743698   -4.10219374498244   10.33252363790144
C         7.02866600408853   -4.38415544868090   10.51481707368537
H         7.04401343412125   -5.41261452730338   10.18498329134034
C         5.84109342613964   -3.76613384069485   10.87070821345653
H         4.90425484517928   -4.29856523985769   10.83157038501696
C         5.87624230475855   -2.44238756354179   11.28387887122170
H         4.97904684197545   -1.91184613564416   11.56910934360163
C         9.52274429164440   -0.51353828220561    8.96852667709962
H         9.06144241237488   -1.46845289303520    8.71145133596417
H        10.60302629960568   -0.62762379170578    8.80481821472666
C         8.94112905910250    0.58407950830047    8.11591111041837
C         9.74522112145071    1.61666156961565    7.60082630918116
C        11.16621172100060    1.60390117538055    7.62162097259983
H        11.69074272667934    0.74173269809950    8.00357210902529
C        11.90341160336606    2.64403819194280    7.14259962260054
H        12.98275107600742    2.59643572681831    7.16389671675384
C        11.27685748147205    3.78785386934920    6.61229300328886
H        11.88117538584010    4.60568860213144    6.24894799601218
C         9.91971423990539    3.83914328191438    6.54966314398371
H         9.41755395458532    4.69792515722527    6.12807722022739
C         9.11926615282364    2.76654626235384    7.01849209601331
C         7.73377156183356    2.83131654578712    6.93946595084858
H         7.26932148123554    3.72200297660994    6.54085903146634
C         6.93208427351777    1.77241149141138    7.34787705126099
C         5.52357471052295    1.82315443916860    7.19208568209925
H         5.09131168749891    2.71840543355241    6.77092662822917
C         4.73610220581597    0.77292244048307    7.54979961090713
H         3.66447628383578    0.81954289830340    7.43082804648373
C         5.32578420843198   -0.39647800518313    8.06766977135960
H         4.70248254144748   -1.25321265055492    8.28061729024985
C         6.67913230671868   -0.46932689375273    8.27658911516491
H         7.10131688908684   -1.42392884045564    8.55927147137304
C         7.54401235221869    0.61776934885906    7.93604371321985

