84
CSD_code = SOLZOL | q = 0 | S = 0 | Stoichiometry = C33H37BClN9P2Ru | MND = 6
Ru        6.90244576663421    2.11673601052313    4.18980026397388
P         5.78984129364877    2.61599365479955    2.22931947499844
P         5.08158399051593    1.43152877361310    5.43571692188714
Cl        7.31890459899199   -0.06512178465055    3.35987022842794
B         9.17316871828782    3.97493129198755    5.39248052943753
H        10.01856828105407    4.66791063835637    5.84016670976131
N         3.63980027024399    3.46023985313643    0.67184643699177
N         5.30227846646831    2.09870434357072   -0.45450274750229
N         5.79947263952450    4.41250425927940    0.09678962993210
N         8.15481900665352    1.73461337619976    5.77555310494555
N         8.99633781130734    2.68331445418101    6.19524213257674
N         6.76214007425272    4.07631504736495    4.80116728980964
N         7.82356133597578    4.68863698269179    5.31990588752320
N         8.68375077075999    2.67677690283589    3.31712253387767
N         9.50267336433996    3.50906289680009    3.96344531563128
C         3.97862730281751    3.05903586937562    2.02104133270328
H         3.36442574060569    2.19391127730557    2.29412661244508
H         3.72571650112888    3.88262836713388    2.69810791132706
C         5.87512237228594    1.50124533526544    0.73373431661770
H         6.92212642172158    1.25071122317474    0.53605696165114
H         5.35130390004334    0.56473163816179    0.94925154415264
C         6.44151254781126    4.14303085057138    1.36791664865167
H         6.29794156324164    5.00925739743239    2.02607235754046
H         7.51782615081978    4.02206158078338    1.19419040818234
C         3.89133956381685    2.39141630947991   -0.28134747368798
H         3.37568306886376    1.48798199763918    0.05483584270045
H         3.48422698801147    2.69875006898589   -1.25048040767868
C         5.99447365833304    3.31559404768898   -0.83859848377225
H         7.06449647019807    3.10771999252702   -0.92446437147796
H         5.61256831925821    3.63191979577842   -1.81509184727284
C         4.37460434787974    4.64323882784550    0.25805235129032
H         3.97244658605715    4.97305252287080   -0.70566312507912
H         4.22339380030125    5.43518624918677    0.99718680991779
C         3.59881528896843    0.68262956742451    4.67378611812582
C         3.75951793047492    0.04657731744935    3.44839316792837
H         4.73852073852185    0.06159053040918    2.98378009057254
C         2.69851682656859   -0.62297403713534    2.86419609543111
H         2.82909180750555   -1.11910524955852    1.91309309839574
C         1.47159651081381   -0.66340675961796    3.50516091329101
H         0.63823899508670   -1.17731833213731    3.04903081885098
C         1.31833844369091   -0.06428705976784    4.74589325309320
H         0.36901409930188   -0.12050242313469    5.25867521740987
C         2.37983651487523    0.59356335122920    5.33956008556958
H         2.26769870660708    1.02768331120170    6.32324651926018
C         5.23327426473236    0.08093432598855    6.66856961221203
C         5.61434314938365   -1.15900535346474    6.15495300347150
H         5.87343717588931   -1.23916709702658    5.10620865717525
C         5.68706108886289   -2.26312352742414    6.98193969932831
H         5.99080614954566   -3.21747601365916    6.57748356096126
C         5.37151380895981   -2.14470496813867    8.32671124741657
H         5.42820270465895   -3.00678631699518    8.97512242139258
C         4.97949668831479   -0.91942812036372    8.83618629076664
H         4.72504816402708   -0.82463103910144    9.88222138463665
C         4.90363379016036    0.19191468373365    8.01277423239290
H         4.58601555434495    1.13882566409604    8.42524640368051
C         4.46071887054557    2.81361138586995    6.44336358498680
C         3.29085868003565    3.51330074517082    6.17327340966036
H         2.63626253132647    3.18311860949748    5.37818175903564
C         2.97012836085958    4.64092897776766    6.91028020700134
H         2.05517361938903    5.17596099633354    6.69963985657459
C         3.82059579282474    5.09126215632184    7.90527609824157
H         3.56760173197967    5.97288276589750    8.47538535656837
C         5.00583289665182    4.41800412400865    8.15877652505967
H         5.68157958889326    4.77834805969888    8.92099281941783
C         5.32666875798519    3.29183499758804    7.42713539135662
H         6.26035513727307    2.76999836522074    7.60402637950850
C         8.37729028403030    0.64522505724177    6.49347068582418
H         7.83905510937207   -0.26502099254172    6.31576432090475
C         9.38693340811068    0.89687396446673    7.42353317195843
H         9.78567462314476    0.21722344655638    8.14773611600346
C         9.75443817758397    2.20366667471464    7.19460027741847
H        10.49740570184153    2.81397243225747    7.66691655025537
C         5.78085009404658    4.96469744450197    4.73148883652668
H         4.81284949191520    4.70024507008747    4.35214437700292
C         6.21612565056239    6.19006258113413    5.23320150071731
H         5.65358085789076    7.09673296429677    5.31658496312845
C         7.52671296808854    5.96795063588706    5.59420816954815
H         8.25489645553272    6.62778645967482    6.01957515667732
C         9.27876753428538    2.31127862331682    2.19239602936744
H         8.82104874334321    1.60929103370543    1.52115797265988
C        10.52334605780769    2.93372600917491    2.09712594654814
H        11.23974419117636    2.84075232049825    1.30725255952799
C        10.62392437168310    3.68440596215662    3.24796785846948
H        11.41178021861025    4.31945662359250    3.59916112825394

