99
CSD_code = SOMDUW | q = 0 | S = 0 | Stoichiometry = C38H46N4O8PdS2 | MND = 4
C        -5.40495901924401   -3.21542645857039    6.49566429937998
H        -4.97634120838270   -4.17140223478102    6.21729106524657
C        -6.75241031328692   -3.04509989413611    6.77336565356182
H        -7.42315224464301   -3.88701033275883    6.71481504542839
C        -7.22367703723613   -1.78922012000022    7.12802960911522
H        -8.26835100168840   -1.63583252924609    7.35250396781379
C        -6.32815597721501   -0.72971081222228    7.18047405948342
H        -6.62047320280836    0.27290157987820    7.44760660384159
C        -5.00916256154972   -0.98188883393555    6.86415250118462
C        -2.53979929446592   -0.74990768546969    8.72424304783566
H        -3.59575479264338   -0.92073077466865    9.00574972255906
C        -2.12066217268544    0.49892048771171    9.48719348030466
C        -0.95344843680736    2.51985075236465    9.35226970386886
H        -1.76824963419150    3.23000918657594    9.20203755612429
H        -0.05718834203319    2.85723941200979    8.83715315066450
H        -0.76871544418061    2.40460530352962   10.42235136140700
C        -1.72395279133222   -1.99340736261712    9.14904044608382
H        -1.88190764601102   -2.75347056482785    8.35540455630727
C        -0.22528593426717   -1.68590264600505    9.20987742578752
H         0.01365356730189   -1.01375047342023    8.38223621344106
H         0.01071273105520   -1.16914045355775   10.14401873047698
C         0.61902865077102   -2.95066739560581    9.08768079628646
H         0.51674836226322   -3.57505860590104    9.97156668622260
H         1.67126139600600   -2.69844905473804    8.97298014852118
H         0.30106139487137   -3.53313997749420    8.22382332571791
C        -2.28117200363453   -2.55592117959043   10.45948535043234
H        -1.65881446913362   -3.39650794129078   10.77302433408082
H        -2.24545255708618   -1.78600268600228   11.23285951716866
C        -3.69522947527270   -3.03217486541347   10.27329884203261
C        -4.74380916696390   -2.44074569211054   10.96705183194908
H        -4.53942074500054   -1.61947375180859   11.63864038151012
C        -6.04111253201995   -2.89073942555864   10.80673808066081
H        -6.84401885534816   -2.42080812340109   11.35724147014843
C        -6.32491301366895   -3.95322467333127    9.95769403715759
C        -5.27824060186650   -4.52826592216348    9.24934747191180
H        -5.47648018150374   -5.36008759650867    8.58808720724068
C        -3.97995389872336   -4.06849656957932    9.38962664629556
H        -3.18798914588599   -4.53228600998351    8.81615492490674
C        -7.72972617546427   -4.46363634626437    9.83085794473449
H        -8.06118879284444   -4.88677255839879   10.77882256193440
H        -7.79739603545924   -5.23765187072894    9.07042369116113
H        -8.41225610932157   -3.65417418253009    9.57462195298939
N        -4.56006170912379   -2.18706751115106    6.53694173299540
N        -2.42086164895708   -0.53465186453468    7.30460579396543
O        -3.49082336499219    0.36957636842894    5.28804218877750
O        -4.04848336977004    1.42058879116532    7.44499317778156
O        -1.30601300646077    1.26842265865980    8.77551871696413
O        -2.47528609322168    0.74338886208569   10.61225844383055
Pd       -2.61628943706943   -2.16081079150455    6.08893401917769
S        -3.66363019026969    0.24316058781721    6.71755713269703
C         0.17211348310410   -1.10586503783546    5.68161354131432
H        -0.25658308166348   -0.14991632688775    5.95995819957316
C         1.51957239369986   -1.27607447154848    5.40387504028310
H         2.19020414560863   -0.43406329196842    5.46223336701441
C         1.99095894856800   -2.53194830201553    5.04935715631463
H         3.03563680697954   -2.68524702895509    4.82483870848953
C         1.09553743576279   -3.59155026846077    4.99699036933732
H         1.38794467913478   -4.59414979832181    4.72991221432864
C        -0.22347170158164   -3.33948430217731    5.31332706029834
C        -2.69288659761579   -3.57155934277566    3.45327482514965
H        -1.63691384118294   -3.40081686786172    3.17172837014223
C        -3.11239937378132   -4.82025408978664    2.69029062961098
C        -4.27920743927861   -6.84142828191217    2.82560883409158
H        -3.46436196583188   -7.55154279631264    2.97583678766942
H        -5.17541400978260   -7.17882326263979    3.34081353599089
H        -4.46406209637868   -6.72629447366291    1.75553419979964
C        -3.50875967163350   -2.32812700434903    3.02834448124352
H        -3.35074420429509   -1.56797902982261    3.82187358374685
C        -5.00743024833273   -2.63562941700435    2.96759819137794
H        -5.24637445562430   -3.30774999196974    3.79526458175034
H        -5.24344591148170   -3.15241546764073    2.03347843038796
C        -5.85168875321577   -1.37082727149110    3.08977101147485
H        -5.74939979565034   -0.74647217334066    2.20586173290804
H        -6.90392506396757   -1.62301212254508    3.20448994508708
H        -5.53369594305199   -0.78832968793449    3.95360490038984
C        -2.95155065580473   -1.76571574775597    1.71787472184799
H        -3.57392870258439   -0.92516798521451    1.40425835642227
H        -2.98732550810260   -2.53573555116364    0.94461181918047
C        -1.53746269974444   -1.28953667331098    1.90407225959001
C        -0.48888990249796   -1.88123356863413    1.21054109791067
H        -0.69345381786131   -2.70197759933061    0.53835448621802
C         0.80844217216559   -1.43128282528088    1.37079308218390
H         1.61120261880207   -1.90073829738706    0.81967173695160
C         1.09221409322374   -0.36841394271499    2.21935916879620
C         0.04556053408114    0.20698139867995    2.92741586464114
H         0.24397372278015    1.03827985009847    3.58928229119455
C        -1.25272107683698   -0.25294218554205    2.78740473799572
H        -2.04458712150736    0.21058856823549    3.36122401447185
C         2.49709077540379    0.14165704928327    2.34633835977398
H         2.82937384465198    0.56324878634996    1.39804258492821
H         2.56470330584959    0.91672729582969    3.10564470433463
H         3.17926176363971   -0.66753976329425    2.60422768209066
N        -0.67266222267692   -2.13433039747553    5.64049778556428
N        -2.81176766906469   -3.78673892759432    4.87294663781574
O        -1.74171937160365   -4.69108218444558    6.88942577385401
O        -1.18413262089221   -5.74196240617638    4.73239998407326
O        -3.92676302418277   -5.58987169526020    3.40217862571997
O        -2.75748884755727   -5.06502283167007    1.56538027321911
S        -1.56896979672159   -4.56457847542879    5.45991764428155

