109
CSD_code = SOMDEG | q = 0 | S = 0 | Stoichiometry = C50H55ClNiP2 | MND = 4
Ni       10.68572829624295   11.77715652059162    5.56248734671849
P         9.35817615321549   10.62114444785359    6.82594630960464
Cl        9.84704064245986   13.67687449768456    5.86869284617288
P        11.32623702374520   12.23439260504352    3.49427023315340
C        10.05306511763221    9.64667066898145    8.19796600973606
C        11.25910883593954    8.89297896264940    5.56061161567542
C         8.86382410103780    9.32663399223574    5.63590803267131
C        11.66981650428990   10.20173370978442    5.73212086014685
C         9.90924503738939    8.65653323309976    5.01717491818235
C         7.77433564470609   11.23362831767641    7.47532835010884
C         9.71019481187993    8.31720514815208    8.41421907021077
H         8.96152786111863    7.84689181985900    7.79149050786936
C        12.30864463537812   10.89978799741927    2.60351215724317
H        11.83536405111897    9.98078520458365    2.97899473201440
C         9.65144240891486    7.82418303386947    3.90109530668296
C         7.53593079428448    9.10085953900193    5.23841665580853
H         6.73298752080392    9.60736025403851    5.75545467098876
C         7.26363416139634    8.24239951463628    4.21014294772354
H         6.24182128545054    8.05236090307548    3.91301977127526
C        12.05103331236269    7.81828190654958    6.05402005335477
C        10.68766415147494    7.24487671181520    3.13468678053577
H        11.71215579496175    7.41838917498629    3.42960699814814
C        10.33693170178870    7.59874866873321    9.41547204648635
H        10.07811410059882    6.56197518756847    9.57444961387321
C         8.30535504351994    7.61762629187900    3.49384540181391
C        11.63357363919711    9.53114492044751   10.00586962699548
H        12.38309765142819   10.00204580355570   10.62514218149136
C        12.90610005286194   10.46896144997298    6.36014006019033
H        13.21606515323771   11.50049336872276    6.51959949404486
C        12.27672617978604   10.82938270464949    1.07756324796512
H        11.25147690055249   10.80111165950144    0.70806624507631
H        12.77546055839390   11.69614145937322    0.64186859267021
C         7.32135326006614   10.92909146114666    8.75374014990602
H         7.91244277539949   10.29626165600446    9.40104677048621
C        11.01361694886785   10.25046962361572    9.00161095797647
H        11.27366282298236   11.28642301610370    8.82108119823206
C        11.30099813794347    8.20154547692543   10.20708241654519
H        11.79483229442329    7.63267261694723   10.98104508099360
C         5.81270621664970   12.57360551099418    7.09987061144309
H         5.23011159156408   13.22123452483321    6.46118384580266
C        13.30389841243521    8.10935093597407    6.65478528743981
C        13.71435509889328    9.45189871248011    6.78183476284986
H        14.66633070738825    9.66326354566985    7.24940824313566
C        13.76042004157843   10.88586573810835    3.08230941648157
H        14.29691177606094   11.73952086920739    2.66416831347226
H        13.79168232559363   10.95660586896787    4.17084627011252
C         7.01888908000171   12.06851948570905    6.65475918503463
H         7.39760348672909   12.33051124938413    5.67588802526691
C        12.17094599304846   13.88077053747740    3.33663101148154
H        11.36229288176674   14.57771918457528    3.59521615437259
C        14.45601229713340    9.60441205698136    2.63310756260447
H        15.49043251837016    9.60081592091397    2.98382860619198
H        13.95246026734172    8.74313307358626    3.07837358579659
C         5.35811932623240   12.25830079069612    8.37079832105227
H         4.41824892495188   12.65765714265529    8.72300416987719
C        14.08554947874425    7.05395490306168    7.16603619229582
H        15.04378489173514    7.29006053728282    7.60728868349099
C         9.83535077470595   12.41162403317623    2.38108415196080
H        10.17975805735136   12.38996006888812    1.34132018216075
C         8.95128280979337   11.19624695610265    2.66498165313196
H         9.50592061255549   10.27225269154045    2.48213638394929
H         8.68651098713056   11.21731413084155    3.72973053015409
C        13.23878501256223   14.05667664323045    4.41663781561664
H        12.80100889241182   13.79706199455257    5.38702016338272
H        14.08945400395927   13.39746211279579    4.23626349265557
C         6.89659056162743   12.48843978950862    2.07479905368587
H         5.99088654390656   12.50135299223950    1.46445022251305
H         6.59655206597097   12.53602725835061    3.12365942597313
C        11.60403637724118    6.47932592445778    6.05685812749993
H        10.63120194549762    6.24578001667961    5.65115674413132
C         6.11346551438763   11.44043181802227    9.19487283507783
H         5.76280941255180   11.20211514890345   10.18877618492333
C         7.67683740131696   11.20225525788649    1.83129753670449
H         7.93393410829379   11.12697329248853    0.77120519263913
H         7.06953819295921   10.33213479667652    2.09055364105424
C         8.04888031641221    6.80987085775987    2.36615863139686
H         7.02184513063623    6.64834037855099    2.07037551905615
C        14.41860875954196    9.49536325625515    1.11253814170731
H        14.98562120550542   10.32194003973832    0.67695150400761
H        14.88798864110848    8.56357614841925    0.79009056580933
C         9.04060210725291   13.69960021425852    2.59140798049657
H         8.77811226622415   13.80231827518655    3.64535773143331
H         9.64210908382772   14.56495264201719    2.30798205138450
C        10.40479152095022    6.48532056951411    2.03511620002386
H        11.20550713888378    6.05386265899186    1.45178105834464
C        12.97868539411866    9.55134286617244    0.61379277465662
H        12.42937573915810    8.68725932958625    0.99558957213954
H        12.96154480191936    9.50209300060470   -0.47751846624349
C        13.63707110959802    5.76414936629090    7.12532021788948
H        14.23894930905712    4.96092153247948    7.52472604267467
C        13.71609245805849   15.50549213984268    4.43455969369910
H        12.87956802544122   16.15639977935242    4.69708733429549
H        14.49163468762050   15.63389751428865    5.19283623178194
C        12.37770816076436    5.48038779150579    6.57855781782550
H        12.01793641377126    4.46147659575713    6.57512134991786
C        12.71840021874422   14.25260241050999    1.96323431361146
H        13.56208807827670   13.60960686588087    1.70656908387382
H        11.94939744837908   14.12837739940022    1.19775945767954
C         7.77039358609332   13.69254017904675    1.74290100426457
H         8.03815670644451   13.66033033984729    0.68273072986017
H         7.21553321624791   14.61625953449019    1.91875203765596
C         9.07361487655682    6.25629260474154    1.65216279908425
H         8.86847801446172    5.64524545135273    0.78543804096472
C        13.19555347507892   15.70445717253465    1.98666719388348
H        13.60018899486218   15.97762308165280    1.00907835343662
H        12.34714963214422   16.36084982952970    2.19331605157908
C        14.25887269879513   15.90129594084167    3.06383515174206
H        14.58209926699458   16.94421335645016    3.07839984975374
H        15.13087755979884   15.28568183352073    2.82789313611682

