21
CSD_code = SOMGIL | q = -1 | S = 0 | Stoichiometry = C6H6N2O6V(1-) | MND = 7
V         1.00068705928233    5.01309866410808    7.87454304960614
O        -0.72485126462090    5.12038426153069    7.89188521050108
O         2.61602159871002    5.81766966443790    7.87449586271918
O         1.32848382125210    3.66425371427273    7.19987203359645
O         1.01128119774510    7.60564960485509    8.56301915168136
N         0.81079337832751    6.06655619118702    6.14625380642336
N         3.01226902192408    8.38542368455366    7.71636010564628
H         3.27820934497777    8.52727782636387    8.68495113880890
H         3.78579673494196    7.98362262367159    7.20005140486598
C         0.23936868653633    5.72246641411565    5.00582955599524
H        -0.20211630931084    4.73376472041746    4.98710766300212
C         0.22227664030073    6.57596618762981    3.91232138271370
H        -0.24907769757536    6.27133994551862    2.98980162116075
C         0.82576303041023    7.82115257034934    4.02559676290733
H         0.83279429298173    8.50735669062391    3.18914436851491
C         1.41652252130444    8.17168004097329    5.22784391310921
H         1.89369062882309    9.12821016402295    5.37541287858165
C         1.38409901016288    7.25454392746113    6.27327449868502
C         1.86460142930115    7.54967123554682    7.67578820987628
O        -0.25384403476681    4.68404978327264    9.06460644802749
O         2.26363090929233    5.35506208508795    9.07554093357772

