29
CSD_code = SOMJUZ | q = 0 | S = 0 | Stoichiometry = C6H18ClN3Ti | MND = 4
Ti        0.00003113433020    0.00001735919867    4.33061580225134
N         1.00540785275153   -1.37097688126217    5.00315017600828
C         0.63078910489661   -2.44674431661337    5.88539955376276
Cl        0.00013888179708   -0.00013661907463    2.14159173029217
C         2.24390521451266   -1.63552706034662    4.30766209756252
H         2.49803585212037   -0.77851723792563    3.66746416900114
H         3.07298389083162   -1.80125083841160    5.01740497627576
H         1.41408212112673   -2.63079890901020    6.64008605627181
H         2.16707064158161   -2.53954095203612    3.67509673356560
H        -0.29652560723571   -2.18093137085022    6.40230488440940
H         0.47901967621852   -3.39185941920530    5.33280146698670
N         0.68459639860117    1.55625564334913    5.00309092792949
N        -1.68998865123767   -0.18526196907835    5.00309699131859
C         1.80358544381304    1.76978863423223    5.88528739292530
C         0.29434445107444    2.76102969109650    4.30750772258302
C        -2.43433682476212    0.67688622772487    5.88549307744044
C        -2.53839240995353   -1.12535137766112    4.30739519731687
H         1.57138813918972    2.54027888275517    6.63988883582722
H         2.03715739024337    0.83381664370498    6.40220512162097
H         2.69786906588655    2.11088867694312    5.33250315668118
H        -0.57493393707238    2.55253759541821    3.66735348099427
H         0.02331542798369    3.56195663550682    5.01717950592126
H         1.11559571181621    3.14647625850926    3.67484249043002
H        -2.98537886572646    0.09043127443178    6.64006386366489
H        -1.74043411623141    1.34686307978910    6.40254113727464
H        -3.17690701910822    1.28105219666436    5.33303233087082
H        -1.92326534488581   -1.77384137402654    3.66709469806944
H        -3.09655135282303   -1.76060046213635    5.01695964565340
H        -3.28280226973850   -0.60664001168568    3.67488677709070

