97
CSD_code = SOMJIN | q = 0 | S = 0 | Stoichiometry = C40H52O4Ti | MND = 4
Ti        7.60150036554242    7.60149910597427   -0.00000115181654
O         8.04749111342531    6.22676253879185    0.95375303742895
C         7.32055064146167    5.35060503516239    1.65120599050171
C         6.53449929642385    5.84343606926143    2.69955822099856
C         5.76263440356414    5.00016671423002    3.47301646012879
C         5.77396434416292    3.64303403557273    3.21076938939725
C         6.55615957184965    3.14591796956466    2.18116644051417
C         7.34410404297499    3.96350777653706    1.38228149149541
C         7.59518193787462    3.95356376270974   -1.08714741359401
C         8.17726142206189    3.41501900931040    0.22884071416241
C         9.63951276147200    3.86309097483304    0.37190906231690
C         8.16289077978901    1.88359723349191    0.16437607561101
H         7.55171062304307    5.04654271558488   -1.07200148690666
H         8.21727893727978    3.64349852775405   -1.92525608897693
H         6.58820075072543    3.56623755055932   -1.23784263214326
H        10.03919352522482    3.53835880497944    1.33095179697819
H        10.24271864187367    3.42677618744164   -0.42207001022654
H         9.72403928791039    4.94589282513450    0.30433887932527
H         7.15952620210743    1.50222412989977   -0.00900298975263
H         8.79066423899154    1.55574227014511   -0.66171328491605
H         8.55706000330563    1.44986522449247    1.08050916676631
H         6.55600685636223    6.91413898418513    2.88931121634285
H         5.16192122412522    5.40077850999108    4.27649331397828
H         5.17841480135951    2.96684074185560    3.80566976858942
H         6.54197594786034    2.08257995594729    2.00739981775420
O         8.97623750389273    8.04748950548239   -0.95375478154889
O         7.15550934371829    8.97623691702997    0.95375116809242
O         6.22676257515880    7.15550763666088   -0.95375346707105
C         9.85239545453362    7.32054911337551   -1.65120732812500
C         7.88244806028176    9.85239449426113    1.65120599873480
C         5.35060557011233    7.88244970013181   -1.65120542448299
C         9.35956501136261    6.53449697760790   -2.69955924077117
C        11.23949263310318    7.34410290250951   -1.38228222640036
C         8.66849958362863    9.35956330433967    2.69955811225734
C         7.85889580845185   11.23949184717303    1.38228093457678
C         5.84343699204444    8.66850102203721   -2.69955748711715
C         3.96350841884861    7.85889740202972   -1.38228040691964
C        10.20283491132483    5.76263141092747   -3.47301633180033
H         8.28886205990350    6.55600358177621   -2.88931217145812
C        12.05708291134206    6.55615746980109   -2.18116575415619
C        11.78798067913425    8.17726118340970   -0.22884172472932
C         9.44036550417853   10.20283277434236    3.47301578041191
H         8.64699437294839    8.28885990391249    2.88930889809110
C         8.64684236716680   12.05708139945561    2.18116433085803
C         7.02573794174983   11.78798044532988    0.22884034785108
C         5.00016809295403    9.44036714412081   -3.47301497736498
H         6.91413988679125    8.64699262852925   -2.88931071616036
C         3.14591906337128    8.64684299470381   -2.18116471258777
C         3.41501926076467    7.02573966164044   -0.22884008152492
C        11.55996739280689    5.77396088492276   -3.21076789505869
H         9.80222375459747    5.16191808109254   -4.27649343692660
H        13.12042100175397    6.54197542568129   -2.00739977851974
C        11.24943619965936    7.59518230674489    1.08714676884674
C        11.33990826053892    9.63951228972755   -0.37191091977760
C        13.31940238505702    8.16289141594332   -0.16437625407676
C         9.42903801966577   11.55996529985282    3.21076673925821
H        10.04107606144506    9.80222128598273    4.27649496164387
H         8.66101780224867   13.12042035212860    2.00740497745960
C         7.60781825823081   11.24943664798007   -1.08714780563814
C         5.56348645906927   11.33990834944391    0.37190793766272
C         7.04010821740207   13.31940213099851    0.16437556068728
C         3.64303554032071    9.42903837765400   -3.21076737934276
H         5.40078023032633   10.04108124650297   -4.27649094340073
H         2.08258113482993    8.66102805110599   -2.00739731765727
C         3.95356486278022    7.60781818124166    1.08714811881327
C         3.86308976365501    5.56348797516305   -0.37190916180731
C         1.88359754676564    7.04011149445328   -0.16437480729633
H        12.23616134825696    5.17841296160888   -3.80566915512376
H        10.15645732665260    7.55171032424899    1.07200026095807
H        11.55950063623810    8.21727991659503    1.92525532666350
H        11.63676286030778    6.58820138999602    1.23784262366993
H        11.66464051255856   10.03919253675154   -1.33095383316920
H        11.77622240688976   10.24271897316692    0.42206792554155
H        10.25710638344117    9.72403823132089   -0.30434118382419
H        13.70077589114527    7.15952714264868    0.00900369202447
H        13.64725699252173    8.79066582715962    0.66171254717454
H        13.75313418617138    8.55705995046180   -1.08050969835260
H        10.02457839029866   12.23615969275707    3.80567490908271
H         7.65129012171228   10.15645776386553   -1.07200195881011
H         6.98572129927867   11.55950161747974   -1.92525657853596
H         8.61479933249614   11.63676335224279   -1.23784281453239
H         5.16380522595492   11.66464040727167    1.33095054130214
H         4.96028059277768   11.77622249771906   -0.42207155899824
H         5.47896066608283   10.25710645538724    0.30433791079404
H         8.04347269212858   13.70077590259977   -0.00900293812882
H         6.41233487991502   13.64725680538705   -0.66171403563324
H         6.64593832436280   13.75313342629132    1.08050871076134
H         2.96684273059636   10.02458966580707   -3.80566653868251
H         5.04654380326808    7.65128922451940    1.07200154026724
H         3.64350003342628    6.98572051079561    1.92525642619863
H         3.56623895567077    8.61479931991038    1.23784445457067
H         3.53835694137111    5.16380805564263   -1.33095205549803
H         3.42677474169557    4.96028201915899    0.42206976989615
H         4.94589155331810    5.47896068880498   -0.30433934024056
H         1.50222545727342    8.04347633498776    0.00900489042198
H         1.55574215274059    6.41233789365454    0.66171428447234
H         1.44986494276516    6.64594324115402   -1.08050801175468

