97
CSD_code = SOMJOT | q = 0 | S = 0 | Stoichiometry = C40H52O4Ti | MND = 4
Ti       13.48823327892078    2.15306915115003    3.80842346360141
O        14.89139267674409    1.29913224066591    3.30108605518192
O        12.48215049480750    1.01560261642868    4.69325237710044
O        13.91779281754857    3.47257840499139    4.83450372751153
O        12.53913439158359    2.86811796158367    2.53026244246787
C        17.38239777324955    2.45039239297515    2.67920485166305
C        18.68715957690566    1.51021359787610    0.23995366716658
C        14.87249763617328   -1.60747027217535   -0.62292306066970
C        13.60562113878442   -0.77656865923150    1.86600672332610
C        13.86347401855101   -0.91729612197796    6.17233937527733
C        13.62479835799332   -0.76077040395238    9.09653718548920
C        10.83057274288146    3.36320935830971    8.65554856118324
C        11.00651168321208    3.20277008503584    5.74774023938099
C        15.76827262976045    2.30363516625067    6.48557652526944
C        18.26795299930387    3.89132289478330    7.02135458882156
C        16.53126393028018    7.52169767543549    4.05895905363719
C        14.08482728366305    5.97743441056739    3.56215006881113
C        15.49882930490161    0.85514059562818    2.19377111000644
C        16.74293353276337    1.39501931675562    1.82223647546842
C        17.36182325349208    0.94599264327763    0.65824247630503
C        16.73690822755671   -0.01745239020229   -0.11940871660193
C        15.51916564426635   -0.57120496876228    0.24572435783954
C        14.89595420827935   -0.14983453010567    1.41805502834418
C        12.41467611236736    1.12694664406031    6.02884457152148
C        13.06290883405638    0.17187054204712    6.83180030954649
C        12.95469306105852    0.25435942678788    8.21810371435338
C        12.22552404017501    1.28994864854446    8.78324312828671
C        11.59727853898587    2.25076695193884    8.00398457744937
C        11.68349243051563    2.17586603224329    6.61502220832067
C        15.02751467383386    4.18288447871052    5.04432983773966
C        16.02473307235651    3.65946526589746    5.88863482844098
C        17.17679427491445    4.40320011870239    6.12471260808056
C        17.31666811787016    5.64442979685573    5.51726922476178
C        16.34079424062160    6.17245581992919    4.68579795260279
C        15.18029485745395    5.44168842269639    4.44088347585316
C        12.45090427868211    2.32836576739024    1.30629059980565
C        13.43055881616778    2.61695988013134    0.34159340923918
C        13.32130099151665    2.05257525729480   -0.92707809562416
C        12.23812401924212    1.23729098693833   -1.21762839092176
C        11.24825233451791    0.96350086322981   -0.28285875642271
C        11.35467452619658    1.50214642618047    0.99671887358897
C        10.34225168552601    1.24988498365002    2.08013780648498
C        10.08956258234429    0.08796309872200   -0.66919797789582
C        14.36485822777012    2.31609837141930   -1.97118167679262
C        14.55061906438030    3.55787309711960    0.68890654717635
H        17.21634803272731   -0.35248579784656   -1.02875847920830
H        18.31332338291362    2.08131494602506    3.11045260733822
H        17.61766608473432    3.33951388432990    2.09486322090656
H        16.71409866237128    2.73710457775253    3.49184208421733
H        19.03638959122879    1.03321081645220   -0.67225595011066
H        18.61196647643977    2.58299841782076    0.06219597838247
H        19.43251983306132    1.35765707354749    1.01912611383500
H        14.68849667386397   -2.52330291081260   -0.06334649159690
H        13.91469788440206   -1.24105602794530   -0.99122484649447
H        15.50486494915919   -1.84227001382945   -1.47520157175468
H        13.18015227866968   -0.22784924798374    2.71414390591773
H        12.88179127565892   -0.78385801616071    1.05301322500123
H        13.77980278688686   -1.81003178535794    2.17332686145319
H        12.14634580871303    1.35152525513656    9.85956440398276
H        14.80839988569067   -1.07117723881641    6.69072339232605
H        13.31372959435810   -1.85974109166485    6.18442027669721
H        14.06915080380169   -0.65078826990489    5.13239122283590
H        13.36422062724192   -0.59520249539856   10.13875341899973
H        13.32383781091325   -1.76938362039242    8.81817879102503
H        14.70874485844384   -0.69729971257354    8.99998104592859
H        11.26302754092093    4.32883791238734    8.39499486993775
H         9.79325814913820    3.36346107490104    8.32305116646440
H        10.84722583361302    3.25815317890163    9.73734301311089
H        11.23386255669551    3.02742869919703    4.68961027317695
H         9.92444007985399    3.16767357474482    5.88779735889617
H        11.34930106806845    4.20427173667060    6.01381130420620
H        18.21233097084952    6.22014476900521    5.70356353104807
H        14.93425168434717    2.35761881074126    7.19023977564637
H        15.48514047191125    1.60067046814782    5.69081600322794
H        16.64082881630192    1.91816233277139    7.00316802248728
H        17.88392515464195    3.68711074784130    8.01963385097036
H        18.69441967780910    2.97046963199066    6.62479778757315
H        19.06406642255282    4.62682495069961    7.10452840132547
H        13.60941253750293    6.84039462736158    4.03088078686493
H        14.48258388076187    6.29912322607836    2.59999267380946
H        13.32469611793766    5.20862731219765    3.39651151929240
H        12.15535862489397    0.81039542434818   -2.20767200187623
H         9.73488655479780    2.14360146342364    2.23841688653364
H         9.68311946906755    0.42442427386663    1.83060896660957
H        10.85399398505325    1.02160404497246    3.02157844626273
H        14.65735206322824    3.63394957555953    1.77725558086863
H        15.48979946829991    3.21406354956506    0.26253762277341
H        14.33735677134805    4.55294864559222    0.29225129712297
H         9.14524387043580    0.60909574887121   -0.52046898744690
H        10.16311625237065   -0.19488648375344   -1.71645193779963
H        10.07174625918416   -0.82314489223052   -0.07095036664253
H        15.71327338756189    8.18869334533078    4.32773117037686
H        17.46586499849337    7.96899190578260    4.38730141081411
H        16.54989587482115    7.44163608691456    2.97225989325881
H        14.49373075422934    3.38547599402416   -2.12946344820593
H        15.32214542161213    1.90116104990691   -1.65591652035109
H        14.08485159871069    1.85666642617638   -2.91567291150903

