47
CSD_code = SOMKAG | q = 0 | S = 0 | Stoichiometry = C12H30ClN3Ti | MND = 4
Ti       -0.15931516687529    2.12470896749999    3.07462092757884
N        -1.95165181450909    2.06555742238102    3.42179392937648
N         0.68382107241723    2.86460324132190    4.51635878883393
C        -3.04814765512800    0.96140298781326    5.34664066300602
C        -3.28296440685408    3.16086998892813    1.63842591812828
C         0.25417895530083   -1.43514921837397    4.50218779038910
C         1.64486290753322    0.10618692625621    0.71782100903549
C         1.80004369827615    5.00410144095112    3.94344240712988
C         0.69639748957593    1.98891325541242    6.83128239579302
Cl        0.23463428624338    3.30826620293461    1.25692849265583
N         0.44685954027907    0.41393526121663    2.86800975524368
C        -2.67893039027364    2.28173127767081    4.64872201146788
C        -2.77919157011690    1.84358015430246    2.25471190985423
C        -0.18846974117603   -0.85017992158042    3.15002561519513
C         1.74726862940820    0.31430458068566    2.23931641968151
C         0.58876294461445    4.30746976984351    4.58878314080274
C         1.49448709872571    2.25802260839983    5.54394902129271
H        -2.04350359488517    2.86940349238721    5.32723756046284
H        -3.52135243518093    1.15601118069868    6.30638098550914
H        -3.73644431947975    0.38372156053927    4.73255443020421
H        -3.65006140809712    1.21197203867005    2.50308351099782
H        -2.43022666833170    3.78832859369712    1.37417333571215
H         0.03058669462523   -1.58831957666775    2.36034867346047
H        -0.29672539233580   -2.34667567035214    4.72245671788867
H         1.31719440782024   -1.66844856417545    4.48825874244353
H         2.33235240007056   -0.51580422835288    2.67251274705693
H         1.08007519601878    0.92845902336878    0.27549124405451
H        -0.32420166237974    4.62435958370491    4.05108376157995
H         1.67966579964216    6.08472105565481    3.97814135679577
H         2.71803246930301    4.74033663924856    4.46705664003335
H         2.35889862186092    2.89557969365308    5.79436246362237
H        -0.17681109487870    1.38366459036635    6.59213015831915
H        -3.60485885638866    2.85214240184145    4.46508392956258
H        -2.14489319529620    0.37300808092291    5.50163202496215
H        -2.17626570958795    1.31093187487593    1.49585702341546
H        -3.86651080514656    2.96207455903811    0.74209530297810
H        -3.90916454215825    3.70106289555990    2.34729527837126
H        -1.27631877626616   -0.69100699210081    3.17774438006040
H         0.07051764764781   -0.70326387218006    5.28743708196445
H         2.29816471668769    1.25472624841032    2.42696901241624
H         2.63623063374371    0.07775658716739    0.27074013890852
H         1.13578665727525   -0.82994454714632    0.49220263876191
H         0.50191692832621    4.64486880593085    5.63646185483671
H         1.88752608678872    4.69062740965312    2.90191645990649
H         1.87494977411041    1.29927857602698    5.16239118424998
H         1.31114530921637    1.46408351764360    7.55895529873061
H         0.35874923983500    2.92412009625522    7.27402586726986

