60
CSD_code = SOMMOX | q = 0 | S = 0 | Stoichiometry = C30H27IrO2 | MND = 9
Ir        1.99972912947396   20.28328382113725   28.23091936547110
C         3.48643068968143   17.88292110559773   27.63579971903092
C         4.08608440270221   16.88563576745402   26.81858806473004
H         3.90733128691640   16.93920007870420   25.75579019247257
C         4.83800482810329   15.89778015614938   27.37001214023158
H         5.27852618093132   15.13477015700061   26.74342709845360
C         5.07931910552836   15.84931763119259   28.76175937474275
C         5.88724741617566   14.84542322376573   29.32727676487685
H         6.29692182584256   14.08677034475769   28.67474362626366
C         6.16038373503580   14.82959686289426   30.66717512427023
H         6.78122570003463   14.05524188683810   31.09359976541655
C         5.64754607690998   15.84143202074469   31.48903731500144
H         5.89084752199995   15.84481041991966   32.54208829074648
C         4.85355798199496   16.82705488028917   30.97072938919642
H         4.48890568982452   17.60865263205615   31.61971743055791
C         4.51673452075502   16.85088572254140   29.59930219479808
C         3.69222770813883   17.84937979539802   29.01763706796282
C         3.09479037765772   18.92079022383181   29.84409713808337
C         3.55726472445804   20.28528733356859   29.68652683900188
C         3.47356415676028   21.18054258595397   30.81302291690246
H         3.95778141054746   22.14034134853561   30.71093964902547
C         2.84620732447031   20.81040148650517   31.95217305923444
H         2.81059291729334   21.47803870493075   32.80240175899999
C         2.19745424985217   19.54464139805567   32.06471928967927
C         1.44194478691108   19.20880607396368   33.19826308017829
H         1.34264691512665   19.93750508360149   33.99105963321480
C         0.83130257283513   17.98347672763175   33.30073586578236
H         0.24768720169865   17.73852064567380   34.17578671591779
C         0.96293482346568   17.04995931360821   32.26948942934873
H         0.47317528049026   16.09111169894540   32.35278680339972
C         1.70672335238526   17.34719588506894   31.15572589975850
H         1.80895816360506   16.63026141575382   30.35511201932206
C         2.34092106101747   18.59526676371940   31.02315943403289
C        -0.00623843462891   20.23737385175916   27.42907502326972
C         0.70167541212565   21.32989619081280   26.79303020872365
C         0.95753525809649   22.32829745309587   27.78601543818140
C         0.49728372745088   21.83480948430478   29.03323463241104
C        -0.12070239426147   20.54919794887520   28.81485325998900
C        -0.64929592168655   19.10621989474704   26.69044982824354
H        -1.07147482018317   18.37963273734383   27.37862279253017
H         0.08272081988896   18.60261136932249   26.06236489627750
H        -1.44623038963359   19.48853118569428   26.05196605654052
C         0.87964134673763   21.48641444965625   25.31874784943887
H        -0.03978418192648   21.87088094513837   24.87314301698828
H         1.10881738960165   20.52741596091430   24.86200488151853
H         1.68668531703829   22.17892818913381   25.09674084778090
C         1.55464029952365   23.66891015879081   27.51609504545484
H         2.41678356174373   23.58094412617937   26.85856296355806
H         1.87171960880130   24.15131098222004   28.43654889183775
H         0.81822392935007   24.30872509636260   27.02716754129914
C         0.42810135276980   22.59242994375540   30.31856618475186
H        -0.54101293797491   23.08782222567947   30.40115691449056
H         1.20521278212333   23.35059923368684   30.37351580441245
H         0.53997915687563   21.92558986634660   31.17120083925936
C        -0.89156916840682   19.78951717499193   29.84576354473218
H        -1.89769526479890   20.20275440526064   29.93394187262142
H        -0.41233987451288   19.85439509120156   30.82061166100389
H        -0.97221949273615   18.73898241166657   29.57909430909051
O         2.68095842055655   18.74411785919927   27.07790552766843
O         4.02831137945728   20.65928856807938   28.54421771182504

