119
CSD_code = SOMNOX | q = 0 | S = 0 | Stoichiometry = C56H55MoNO2P4 | MND = 6
Mo       -1.22859204626667    5.78970686688910    2.84640972432204
P        -0.32951624902715    3.78234483747861    1.99593155438337
P        -0.17709177282496    6.62301315974908    0.93440028929789
P        -2.08624071482416    7.84483543777980    3.58260860246203
P        -2.31295199432749    5.07555286675623    4.80361122629124
O        -4.02926027154509    5.60893492017550    1.60647957256018
O         0.86065796691832    5.87710502047466    3.77269362285148
N         2.56199779661717    5.25346478123585    5.11444563566972
C        -2.95931398395901    5.67586733101039    2.04977663042107
C         1.31808543182332    5.13607966950658    4.62170843765881
C         3.44634128739524    6.29551396614686    4.65018481977330
C         3.06334018379636    4.39429680297812    6.15152975889737
C         1.00029657315277    4.21260666381428    0.77534025170468
C         0.40749422939822    5.25581599549465   -0.15606872724539
C        -3.68064172514488    7.46530561750487    4.43316986446241
C        -3.39204993593914    6.42690985595160    5.50394898896028
C        -1.21380546200952    2.59523784772248    0.92535162943115
C        -2.32491585449941    3.03338332893302    0.21589970854776
C        -2.98109469627938    2.18852612008663   -0.66103877225175
C        -2.52826284253055    0.89268792401457   -0.84049452791619
C        -1.41268975279877    0.45127071594476   -0.14729928509978
C        -0.75364596988807    1.29657549817110    0.72605316807787
C         0.54093797584889    2.59701173530345    3.07581703657257
C         1.92178644921398    2.49276639274421    3.20944994323743
C         2.46880933158609    1.61419564163690    4.13007943932676
C         1.65023769986190    0.83311057785705    4.92680673585932
C         0.27272632325537    0.93097052463150    4.80092679151783
C        -0.27465766263533    1.81081374811648    3.88897715391624
C        -0.98791533048813    7.69181740430471   -0.28749502544773
C        -0.53075857619934    8.95082275982339   -0.65689546517426
C        -1.22268042957126    9.68853139579485   -1.60131855196563
C        -2.36856989271097    9.17876842989900   -2.18578164885070
C        -2.83445470947331    7.92756413617489   -1.81466294230342
C        -2.15112464945798    7.19290039184862   -0.86673140843438
C         1.34935415908728    7.55074750478768    1.27800217634900
C         2.62628009978466    7.29768500689085    0.78934753614140
C         3.69572417307321    8.07138405897142    1.21188353415393
C         3.50695220155137    9.10197208428028    2.11707465527551
C         2.23568429040862    9.36341681539037    2.60696610204032
C         1.17301958432036    8.58718159665118    2.19097315137224
C        -2.60900674261556    9.15375758688286    2.42935857465879
C        -3.66941412740171    8.91167029762638    1.56008501295884
C        -4.05595455212931    9.86670251129619    0.63944089167783
C        -3.38074996447384   11.07265110149223    0.55891702478110
C        -2.31334908521477   11.31622861691537    1.40490587382358
C        -1.92937438069413   10.36592658855722    2.33266225198672
C        -1.31179949669827    8.86968905588573    4.88680806695961
C        -1.96953514725102    9.94172688488242    5.48657931353190
C        -1.35294583040867   10.66206862390949    6.49201428868803
C        -0.07271915641120   10.32802561349230    6.90764201407483
C         0.59336612092254    9.27406813530700    6.30677048299705
C        -0.02543579758419    8.54998638774828    5.30204489904659
C        -1.41265739708716    4.60456511047408    6.32233416233063
C        -0.67567797456121    5.58112915095530    6.99192264146354
C         0.13970360094859    5.24757440092807    8.05578208051330
C         0.24972193993966    3.92613390863176    8.45959887260571
C        -0.46088212100458    2.94463707141297    7.78894836083610
C        -1.28236526345593    3.27834596028938    6.72715832127446
C        -3.52270577104194    3.71591901599369    4.72175043665658
C        -4.31773773867731    3.36872760798566    5.81287085845626
C        -5.22644108250498    2.33329255107110    5.70699174773647
C        -5.35046640627843    1.63141530668556    4.51697987906781
C        -4.55620452433509    1.96404604437378    3.43331204006045
C        -3.64703632512634    3.00206817194800    3.53944614968862
H         0.75419864894643    4.30341640578551    5.06267184112890
H         4.36578487758080    5.86202748471973    4.24907665959259
H         2.94367277938473    6.85848607794883    3.86556521568718
H         3.70503638140299    6.97142924454489    5.46883579754463
H         3.98731093235855    3.91001719231167    5.82576537004135
H         3.27399786022629    4.97209832036158    7.05598077926572
H         2.32550832847811    3.62993158304349    6.38649580121828
H         1.35139607753696    3.32090684051005    0.24178644743674
H         1.82880806048649    4.66182770100806    1.33761891271917
H         1.11365470172078    5.60980458801044   -0.91559094874196
H        -0.47220030839926    4.84908097292628   -0.66929522684092
H        -4.36166145810847    7.05221866796532    3.68367171162919
H        -4.13665149652027    8.36437552083790    4.86169919699522
H        -2.85396589810797    6.89801615498407    6.33433862125753
H        -4.32196568693454    5.99849936427048    5.89194311081209
H        -2.67752765008616    4.04186658517807    0.37102505355043
H        -3.84751577454994    2.54154946366006   -1.20139787189261
H        -3.04087059712161    0.22702768240791   -1.51983239221178
H        -1.05279006621392   -0.55803704025252   -0.28969029259372
H         0.11824656522423    0.94271073255496    1.25956345014538
H         2.58116296784711    3.08862650292403    2.59460734583233
H         3.54351711787750    1.53406603293504    4.22042249888457
H         2.08333409974085    0.14740705422401    5.64065084116932
H        -0.37088300709868    0.31654733024689    5.41424746785592
H        -1.34907822954816    1.89878750881740    3.78408428576514
H         0.36565296366407    9.35702512433151   -0.20941480089482
H        -0.86191018946756   10.66750284324345   -1.88361992677577
H        -2.90177688986967    9.75791910006060   -2.92583066194056
H        -3.73354583076153    7.52924385727435   -2.26264253005202
H        -2.51831894859083    6.22461458588524   -0.55593285486687
H         2.80432033848732    6.50665478563505    0.07482017931032
H         4.68598473070768    7.86769784274252    0.82806448004632
H         4.34789185594907    9.69864096721969    2.44033730524406
H         2.07939880089594   10.16459176092710    3.31613796763720
H         0.17092250556191    8.75919559945304    2.56595542710895
H        -4.19545331765463    7.97068659901688    1.60059961189340
H        -4.88739350320397    9.66809338301901   -0.02137595215170
H        -3.68353534058080   11.81825403734740   -0.16190312667530
H        -1.77722638152787   12.25313602035116    1.34560576613360
H        -1.10132596786079   10.58049834658331    2.99531837682220
H        -2.95860790288867   10.22442760615489    5.15120413071752
H        -1.86940125831357   11.49199372005600    6.95357787322241
H         0.40439339268534   10.89521157034424    7.69418317321975
H         1.59586431038519    9.01626291333328    6.62074050438225
H         0.48744217959315    7.73212723714032    4.81680729410467
H        -0.73443099773478    6.61201719550444    6.66738490571768
H         0.69312406458733    6.02027841624314    8.57163923021275
H         0.88784355040714    3.66275546032843    9.29101666495735
H        -0.37519124409672    1.91175416369060    8.09611531801612
H        -1.83546214592626    2.50575755823172    6.21333736246802
H        -4.21000721550143    3.89906795421380    6.75088633497127
H        -5.84041678386125    2.06768645154925    6.55633709213010
H        -6.06417984780572    0.82369666178965    4.44044684892212
H        -4.64090463156702    1.41720445523064    2.50479146373517
H        -3.01599353341246    3.27586467355365    2.70508323337046

