53
CSD_code = SOMNUE | q = 0 | S = 0 | Stoichiometry = C24H22N4PtS2 | MND = 6
Pt        6.93836199580333    8.48496358428628    7.90795726239203
C         8.40650998017613    7.09813211562864    8.25781105694344
H         8.39932674838177    6.32024491535534    7.49368482756835
H         8.16868283300779    6.67406573932008    9.23673821567294
H         9.39671932640153    7.54919763448316    8.30439140821445
C         8.31752935784862    9.58824038483081    6.86046217033251
H         8.95440940997177   10.18328421285399    7.51550240949164
H         7.75082519488846   10.25720186982100    6.20652020734947
H         8.94154058296707    8.94988104698093    6.23442548810297
N         5.25132788686733    9.96611488159014    7.98932762572210
C         5.27332727002741   11.24374239376171    7.67733158470504
H         6.14119047096421   11.59128901659824    7.13400580572127
C         4.25050723250012   12.12854255837160    8.01785535822480
H         4.32741702545941   13.16756873754183    7.73958780454493
C         3.15480802584662   11.64830444399164    8.69351339200057
H         2.33196150773999   12.29552008587256    8.96080764895822
C         3.10297451507623   10.28853500629434    9.03432876512315
C         1.98688057953033    9.70652017418704    9.69900052447827
H         1.16747878273991   10.35381667821926    9.97568717125543
C         1.94296924812623    8.37809560650276    9.95247204237729
H         1.08237863754648    7.93278443982713   10.43030228709884
C         3.02896425620079    7.52765942411899    9.60235457207240
C         3.01100604533387    6.14277860382705    9.82623145830866
H         2.13897165601806    5.68833191855994   10.27432361494623
C         4.10246000809827    5.39245805454530    9.46329859040210
H         4.11556871280875    4.32229722392664    9.59693850240974
C         5.22153616223149    6.03821916655185    8.93490858556162
H         6.10895404930106    5.47935054203786    8.67288042426353
N         5.26767730140812    7.33525782596708    8.73813566145072
C         4.18327168370572    8.08008759455073    9.00584901880527
C         4.20177359713612    9.47685781475736    8.67448286603004
S         7.58897411073014    9.74864277226031    9.90873538494789
C         6.40159767534007    9.17377429758673   11.03515969527526
N         6.24537127279505    7.85840483203629   11.15869476648720
C         5.35168284053509    7.40779451513398   12.01949406324142
H         5.27705412339056    6.32844199397865   12.08273255393719
C         4.54925616198066    8.22827610882319   12.79307302753635
H         3.82351176686817    7.81022933061079   13.47265053013824
C         4.71429949606847    9.60412073076046   12.66996725864704
H         4.10993953653885   10.28378838675605   13.25452455072476
C         5.65658304994573   10.08929403251980   11.79010549048457
H         5.82923727202735   11.14670424728387   11.66127787113579
S         6.29770935423217    7.38086209858492    5.82250784335611
C         4.80014132894141    8.27348699251383    5.65569567056047
N         3.72083214900898    7.79563422245361    6.26596577974357
C         2.58467085799685    8.45999034742190    6.14790144399056
H         1.74080063117707    8.02472672942600    6.67143443844488
C         2.45331950072379    9.63283801218705    5.42544869406265
H         1.50472860484910   10.14400733994116    5.37068556947928
C         3.57586302582299   10.12157298879315    4.76571355279639
H         3.51602960841147   11.02814261726448    4.17909809158034
C         4.76412305688337    9.43044731868945    4.86883494782109
H         5.66336449138587    9.75957639084594    4.37158242477417

