56
CSD_code = SOMNEO | q = 0 | S = 0 | Stoichiometry = C27H20N8Ru | MND = 6
Ru        1.38048392257573    0.40411195089332    4.76316453314523
C         5.97290448320526   -0.56347026788216    2.59843792267298
H         6.93453893201432   -1.02770959839384    2.43962563187839
C         3.50153002022317    0.68760769040195    2.94250210469271
C         3.91763588051863   -0.37021788182674    3.82965970124344
C         4.35697616383241    1.08914339047165    1.89290681817680
H         4.04202373013807    1.88297368655094    1.22952783694074
C         5.56572343619768    0.47116526507964    1.73211578354504
H         6.22495257552815    0.77299039192159    0.93247321097509
C         5.17524636149557   -0.98253817407741    3.62623718302936
H         5.48858105577896   -1.77595817784595    4.29003051278444
N         3.03319438145759   -0.65576772840927    4.77340972033988
N         2.30508375243967    1.18535522930466    3.23063447511788
N         0.28841714197290   -1.08474651206370    3.89490053241255
N        -1.00751848582054   -2.91620801238373    4.23260719059621
C        -0.05764074825746   -1.55724531166530    2.67378658846954
C        -0.31008683779932   -1.93730844291913    4.78419171745353
C        -0.86874345450298   -2.71419757401719    2.89360140963283
C         0.87691521472199   -0.05657911827382    7.58497598140240
C        -0.12536949825158   -1.63229372560156    6.18264299036402
C         1.66021074384683    1.15451484478275    7.53763613485342
N         2.00322269435892    1.60509729633915    6.29053575091892
N         2.07811935989154    1.91283751269412    8.53724488344376
C         2.69786724159777    2.74636278550261    6.51231262487639
N         0.60928412721063   -0.52577724932704    6.35885774920551
C         2.74578262212854    2.93149249316782    7.92945369341236
C         0.24991254497544   -1.12411221246195    1.38741968019314
H         0.87099360226183   -0.25116678091255    1.23551154256575
C        -1.37028302851365   -3.42931904542985    1.80762228783945
H        -1.97870381647649   -4.30564914095193    1.96730759367110
C        -0.25994275233920   -1.84994646532523    0.33577962009580
H        -0.04258057152557   -1.54493777184926   -0.67802280034801
C        -1.05881466448717   -2.98276668729848    0.54429393219580
H        -1.43362879282897   -3.51699628643381   -0.31700619873441
C         0.40305977768454   -0.71315220580927    8.71925042431410
H         0.63228382200240   -0.30964537843315    9.69122672831600
C        -0.62887225994619   -2.33582878371519    7.27517262956235
H        -1.21824815848926   -3.22039916798736    7.10119530436671
C        -0.35158561301420   -1.86413374306125    8.54947463483536
H        -0.72858476866250   -2.39239720526439    9.41245010930603
C         3.31322955089777    3.64448047104996    5.64527507653648
H         3.27673969704192    3.48813167197505    4.57523426854984
C         4.01166057676555    4.90919407696473    7.59229610162428
H         4.53716457978992    5.77050539414460    7.97922734024509
C         3.96535225231682    4.71915379186952    6.20424791506681
H         4.45638136606987    5.43758059220595    5.56326488064659
C         3.41376575798553    4.03073064063746    8.46588296660785
H         3.45652237647405    4.17320524983542    9.53428722044344
N        -0.16424098226316    1.53154645763033    4.59012459793837
C        -1.09081276406624    2.20354609891344    4.45654049815953
C        -2.24750220709663    3.03399107448450    4.29792402293716
H        -2.47071858518948    3.53627329334440    5.23937113784625
H        -3.10072226510811    2.42117940396412    4.00629074870272
H        -2.06376520526974    3.78274836531759    3.52755141270848
H         3.32361295904792   -1.40600738440440    5.40469585638503
H         2.00799275545594    1.93675691458105    2.60183778583968

