45
CSD_code = SOMNUF | q = 0 | S = 0 | Stoichiometry = C16H24ClNO2Pt | MND = 5
C         0.71285829771136    4.56155590708586    4.93120361209548
C         1.09290155871578    4.17326502807255    3.65223971132071
H         1.17949172945851    3.12360697694871    3.42005901547589
C         1.34532527589628    5.11607178785001    2.66727644748234
C         1.22254155032346    6.48768193133509    2.97004148942984
C         0.85438679801465    6.86744124499467    4.24909141195825
H         0.75918114067940    7.91154071078628    4.50508986764461
C         0.60362754591968    5.91417682964191    5.23009632046156
C         1.81000693163408    3.47176614220500    1.01611834792512
H         2.58493317360850    2.94997211021985    1.58805043004513
H         2.08265564021118    3.47523646077942   -0.03831227524800
H         0.85577242494465    2.94977980605919    1.14198922415520
C         1.35449621382690    8.72440273325639    2.17776719022445
H         0.33151278406416    8.98549588309103    2.47075544532443
H         1.59140666263913    9.20924999904739    1.23184007966062
H         2.05139627419258    9.07617546435943    2.94694446680677
C         0.18674625414383    6.30735938873696    6.62799678051132
H        -0.87034458938156    6.59047735216138    6.62627053825574
H         0.75676708524566    7.17809495536594    6.96856220060332
C         0.40745362852379    5.15339285318455    7.58048677942925
H        -0.26501197598718    5.11582770976880    8.43726810570654
C         1.64157338534361    4.51098255414925    7.65977614426400
H         2.47339611194746    4.88096274004392    7.06845825962444
H         1.92022993538607    3.99898590041053    8.57435555961586
C         1.03843519404637    0.99651193420653    8.39407740184788
H         1.77255948379918    1.56017537682573    8.97868353354222
H         1.48120546331554    0.75274770039328    7.42226902849270
C         0.66309209711753   -0.28196529672397    9.14376399116493
H         1.55667269241269   -0.88351189089075    9.31591121084445
H        -0.02553578564878   -0.87014821268336    8.53217729409835
C        -0.00336868939457    0.07349670859276   10.47114391990659
H         0.71569709301883    0.58992547195716   11.11212180626854
H        -0.32082627018866   -0.83327342110779   10.98895363223297
C        -1.20404956672350    0.98297237712205   10.21948124191469
H        -1.96169461629161    0.43823512480969    9.65036166209000
H        -1.65239451099738    1.29233863362204   11.16493246702291
C        -0.76851167094346    2.21716658859331    9.42690883593449
H        -1.63499050930202    2.84824082769458    9.20995668335172
H        -0.05571060546681    2.80033841628865   10.01945094105464
N        -0.12928133090465    1.85086384882541    8.16551510572074
H        -0.79826404472123    1.29429341830346    7.62367598291571
O         1.71391741017730    4.82391364598035    1.38636962325294
O         1.49169756894843    7.34771084467689    1.94273812868595
Cl       -0.50673670481382    1.72273481922426    5.18288561781228
Pt        0.34208346550273    3.32953061472309    6.47759673907209

