53
CSD_code = SOMPAM | q = 0 | S = 0 | Stoichiometry = C24H24N2PtS2 | MND = 6
Pt        1.28141174063859    3.13967560207160   13.25706800807741
C         0.05491947811352    1.77469165998797   14.18432760522937
H         0.09537749581837    1.88396223094672   15.26781766297339
H         0.39235071458219    0.76911931760230   13.92678705375890
H        -0.97633459371991    1.88647543883389   13.85034663658193
N         2.70160975769254    1.79599628610958   12.18631727066094
C         2.66492026386930    0.47327055350456   12.21901753302935
H         1.88255576794693    0.02964604612578   12.81910556754844
C         3.56045806535348   -0.33058033778652   11.53737114131113
H         3.48440651020888   -1.40420844974909   11.59911828904464
C         4.54617132490208    0.28339118116308   10.78172108331847
H         5.26785189177414   -0.30088789192678   10.23107586039040
C         4.59025193397110    1.66265580226715   10.74500673326029
H         5.35134217614647    2.15201944534985   10.16252486039204
C         3.64998761449828    2.40529483226507   11.46144878021292
S         2.72519779175356    3.13950712020140   15.25449548636205
C         4.32164954215296    3.13952745575810   14.51805748111367
C         4.97282066086707    1.93795639108665   14.24818298732675
H         4.48219552279846    1.00757606242730   14.49665747690478
C         6.22652805960002    1.94089376941561   13.66810305153908
H         6.72001794167548    1.00316378317016   13.45401620917159
C         6.85235758129312    3.13956563868829   13.36427849752386
H         7.83106892798448    3.13958086075364   12.90698935072901
S        -0.24621925939261    3.13952988807093   11.32555219171238
C         0.89561014883433    3.13954697973959    9.98900039195554
C         1.33158992811825    1.93789232293480    9.43532274333814
H         0.95964420474260    1.00768105467109    9.84086099107005
C         2.22827094221329    1.94087010298907    8.38442188899487
H         2.56785657997647    1.00316993898036    7.96716923539250
C         2.68928282560112    3.13956358678942    7.86335627511237
H         3.39351450545501    3.13956968653958    7.04417842646320
C         0.05496983890004    4.50494180251147   14.18397303198042
H         0.09677934589461    4.39708232217704   15.26756172346919
H         0.39131738081977    5.51043182771730   13.92466824541052
H        -0.97659393402401    4.39198532012392   13.85134066297677
N         2.70159782618083    4.48344946017629   12.18645685464482
C         2.66492087301250    5.80617030414422   12.21933883278364
H         1.88262331587300    6.24971542762896   12.81957556821333
C         3.56040383077156    6.61010489231655   11.53771887329544
H         3.48434773115658    7.68372554546789   11.59959073342358
C         4.54606341773365    5.99622467239678   10.78192467979761
H         5.26768705749876    6.58057022280819   10.23127563620493
C         4.59017854150204    4.61696412970952   10.74508695361397
H         5.35124536522055    4.12767144529946   10.16251523580346
C         3.64996702923851    3.87423778524577   11.46150628661011
C         4.97282290314278    4.34111668467065   14.24826699985309
H         4.48219892019031    5.27147984997474   14.49680750958825
C         6.22652682266574    4.33821786548104   13.66818075104645
H         6.72001453439219    5.27596185272160   13.45415104245774
C         1.33160977537490    4.34121064496289    9.43535891541491
H         0.95968022786201    5.27141702290613    9.84092364540113
C         2.22828809766261    4.33824883203481    8.38445497424563
H         2.56788505345058    5.27595573054866    7.96722607325364

