85
CSD_code = SOMTUM | q = 0 | S = 0 | Stoichiometry = C36H40BClF2IrN3O | MND = 8
Ir       12.61318854772927    2.35303632153588    0.36248922340246
Cl       11.72978726328521    2.58244427570703    2.51206855393724
C        11.39857180092380    4.02478863851801   -0.48726744130449
C        10.84995909883811    2.74663626581163   -0.89926335429351
C        20.33100248883462    1.89728054586665    3.86677026433725
F        23.48642845213116    3.08071587455428    5.94035628959274
N        22.55936081783427    2.82596149866013    3.74189206216237
N        13.05400545553459    0.45913158057978    0.98125802559891
C        16.41226373013206    1.56041757565539    2.23232830505457
C        17.97082785677953    2.66375257958720    3.69198345776709
H        18.19540410601220    3.43117718440786    4.41807198166035
C        16.70235524298347    2.56158122244203    3.15395434007052
H        15.92024568501456    3.24395911231269    3.44939812735807
C        18.97243373091847    1.78264070731468    3.29837887448580
C        17.41623927739579    0.68649733240841    1.82813719653302
H        17.19993779882091   -0.06459445423092    1.08439666814845
C        18.68770712036805    0.79909089758752    2.35708255699686
H        19.47123082956689    0.12544788305756    2.04196465180129
C        15.05661179442445    1.48397005605264    1.64813347208545
C        21.27915493523632    2.70021446817401    3.23458742343391
C        14.29745301855857    0.30943238905410    1.59638029595500
C        12.39104354956396   -0.68256536745240    1.11886070711740
C        13.18833298834899   -1.61137681162396    1.81081890828260
H        12.89474524100945   -2.61344439689409    2.05870515669635
C        14.38623747034491   -1.00169109253423    2.12728269826182
N        21.91524780808180    1.29950778958936    5.59177443084930
C        19.87894138516094    0.33176063528101    5.84840791756034
C        20.65462496318179    1.20390869328907    5.03119923790810
C        21.95574267931009    0.54735731884876    6.69558324477095
C        20.70793462294871   -0.06458679965149    6.87920329187136
H        20.45502920998071   -0.72471335078983    7.68601479803006
C        18.46740848663475   -0.09106738452720    5.65192349594253
H        18.17286039334667   -0.76439696513691    6.45328407928107
H        18.34612676214969   -0.60534830738152    4.69931797196569
H        17.79751352246047    0.76763398599166    5.65144363360655
C        23.16714612718839    0.43268232903983    7.53564665828435
H        23.99487951537540    0.05337821844911    6.93791036236937
H        22.98855934965009   -0.22757282712467    8.37938214611746
H        23.46095027627926    1.41849095098435    7.89373201729326
C        21.19705116931781    3.49634930216980    2.05634945121414
C        23.26009746073538    3.64355990868888    2.95037959075667
B        23.07601623187141    2.13272583972487    5.01672227593491
F        24.14504605967920    1.30549880824809    4.70702622754886
O        14.55849442952285    2.55045390094991    1.17616724975956
C        20.02698750532630    3.68812814237693    1.15939719957724
H        20.29433972080540    4.36624187152306    0.35236652516156
H        19.18144984264687    4.10574183947219    1.70401233018666
H        19.70476717239607    2.74055094785924    0.72979698534288
C        22.44142523548239    4.07432481953881    1.89754766203875
H        22.74282602798569    4.73896606158166    1.11124813591183
C        24.67357109525886    3.98837562327880    3.21479767621412
H        25.05650851690604    4.65494383528117    2.44742895017337
H        25.27371196101321    3.08018556359376    3.24894988329632
H        24.75993802238872    4.46191756288405    4.19183396067164
C        11.00595508126734   -0.88841209537095    0.62140254932432
H        10.46549289300808    0.05376904446683    0.65831991867130
H        10.49532489336542   -1.62054743403570    1.24127573589013
H        11.01504706144280   -1.25479272677753   -0.40517098606053
C        15.49710819806122   -1.60532593627257    2.91329291917109
H        15.11158101094420   -2.42584673293295    3.51429275835029
H        15.95282240796710   -0.86753162566541    3.56964221571529
H        16.27162037880023   -2.00457122049456    2.25800185189041
C        11.80960987084906    2.11589105353291   -1.75769694274633
C        11.60513347093464    0.89365651888666   -2.59259181317453
H        11.52592539360433    1.18268001500283   -3.64186875022769
H        10.69393619792661    0.37412340041311   -2.31133635567388
H        12.44190076900182    0.20435765458017   -2.49616080711268
C         9.40858172598837    2.38221471985484   -0.73044572412221
H         9.09525243316673    2.54114995308682    0.29945531183600
H         9.22366581739348    1.34442032831924   -0.99527972466871
H         8.79305567898508    3.01464765270814   -1.37322410682113
C        12.70765440313467    4.12005404032324   -0.99947113436271
C        12.97948744545091    2.92330937847143   -1.76466347620119
C        13.64885895618494    5.27469992521773   -0.89670298486349
H        13.28909660142658    6.01054833996326   -0.18299467472856
H        13.75852818758340    5.75367551813069   -1.87102840467724
H        14.63145048524299    4.93817220862318   -0.57000545101956
C        10.62111938965266    5.05536398540384    0.26322600684287
H        11.20566911348507    5.95913773460169    0.41040678231045
H        10.33107504353254    4.67281698341198    1.24144420711453
H         9.71467552185183    5.30775859974697   -0.28753523780775
C        14.19119649698491    2.70857829699198   -2.61046917372108
H        14.07677226110695    3.22886960737565   -3.56369506965124
H        14.34138023445502    1.65110513952895   -2.81540412538860
H        15.07969872359514    3.09762507234579   -2.11793114888068

