77
CSD_code = SOMVEX | q = 0 | S = 0 | Stoichiometry = C31H43AuClP | MND = 4
Au        7.34769807019758    8.05021907902363    3.93514074549940
Cl        9.62116285242583    7.72268497404982    4.44859211047414
P         7.07583983127260    6.40131744904820    5.56845878165557
C         5.31340953644898    8.07464423465301    3.83162111452441
C         4.63330767545531    7.03792475778969    4.53071916542633
C         5.30748921857792    6.09348040821284    5.35224571777192
C         4.62866166452172    5.06798157917412    5.96652380813100
H         5.15455742762309    4.34769748427788    6.57591546736538
C         3.24366210636255    4.93992796297100    5.81437114304220
H         2.72837249523028    4.12418822556088    6.29968869069423
C         2.55485892609671    5.85686624452793    5.07170518568746
H         1.48205650763343    5.78193393971691    4.96511334643844
C         3.21759536845538    6.91936315616640    4.42340409312461
C         2.49763762815092    7.86616859432334    3.66825603189356
H         1.42427920318891    7.76767758028780    3.59442684393567
C         3.15760081388979    8.88639633080735    3.05083735361050
H         2.61785648025688    9.62730825993075    2.47948865318459
C         4.55650778002100    8.97746319983158    3.13148229799549
H         5.02478717519457    9.78979615008708    2.60154739248664
C         7.87834954655996    4.73120428587145    5.65269905043086
H         7.24014528256757    4.07768026838461    6.26248000714182
C         9.27800787379335    4.79999980833182    6.25259420886262
H         9.76931204217027    3.83495769594064    6.13775854096931
H         9.25099253005751    5.04309401931610    7.31287966070787
H         9.87047919199761    5.55236651207568    5.73623274201696
C         7.91346724888097    4.21507451108681    4.21705498416420
H         8.54043564532931    4.86818249480269    3.61135490152602
H         6.91050994819220    4.19830364425899    3.78846119651655
H         8.32451767648562    3.20774629534331    4.17890218434744
C         7.22899478063157    7.12606226732235    7.26815572086554
H         8.31179725131945    7.24584343975868    7.40949023218186
C         6.64753736021870    6.24822324786074    8.37114801041773
H         6.84585963322836    6.70521254573217    9.33961150416864
H         7.08891730998454    5.25389147706613    8.37151167883136
H         5.56881270202829    6.15488855462115    8.25526899104016
C         6.57509553335840    8.50530121003653    7.26104956864506
H         5.51351044918717    8.42902280810642    7.02326812239092
H         7.04776731508055    9.15118807785556    6.52057913317264
H         6.67595265313336    8.97468910790992    8.23826114074105
C         7.59511183668395    9.63021973081000    2.58892987014657
H         6.88282838576654   10.38560093918810    2.93006560075541
C         8.99765406512547   10.24370390293896    2.64331758738371
H         9.43179227295896   10.28412449209308    3.63973060161337
C         8.93667253630645   11.62439386673417    1.96478170942781
H         9.84478996139748   12.18802027788159    2.18070482424070
H         8.08778251966153   12.21252318805169    2.31457095558047
C         8.83513801009213   11.27555285570763    0.46772305299092
H         7.96359192233937   11.72376860963753   -0.00996769671173
H         9.72089565607743   11.61147232102416   -0.07331421249266
C         8.76930879310042    9.74262279209139    0.48412935981161
H         8.99486640773484    9.29776756668068   -0.47922071235545
C         7.39567816010555    9.35530685342815    1.07051298554402
H         6.65158600219993   10.07230198710053    0.70674128637729
C         9.75637217718404    9.43085716351525    1.60307894702192
H        10.75277198150870    9.82379024435762    1.40524617218814
H         9.83704163312233    8.37882675018789    1.85282649194557
C         6.80698753009203    7.97914641899260    0.70753953607969
H         5.98583879267732    7.83990005457265    1.41563675424253
C         7.72589994412213    6.74682918417533    0.80637886111410
H         8.50755112564220    6.83137412280666    1.55704090801551
C         6.82513310946555    5.52226319422533    1.01832873268810
H         6.11793639379933    5.66942663013629    1.83648764527689
H         7.42800438136781    4.64285895880524    1.24803806868194
C         6.12633330163136    5.36678804820526   -0.34708008239538
H         6.33019338729631    4.38894550296233   -0.78513714418498
H         5.04494371877627    5.48163435838244   -0.27298616877729
C         6.76091938386891    6.48123624533647   -1.18817368832339
H         6.66663677351955    6.32341102685902   -2.26218526065191
C         6.19065162991989    7.83148350185902   -0.72130415771989
H         5.10156552317218    7.75958442819913   -0.62604623279558
C         6.46245039110560    8.93497207900036   -1.73975411308447
H         6.11133202292710    9.89960118040126   -1.38349987539472
H         5.92571402730371    8.70532818246358   -2.65929109057723
H         7.51643783063734    9.02029750586742   -1.98181132223145
C         8.18130399925731    6.51410064002112   -0.63159872211590
H         8.79204676703218    7.31341550291728   -1.03890706866474
H         8.70733490989780    5.56837781057195   -0.75633192431755

