81
CSD_code = SOMVOF | q = 0 | S = 0 | Stoichiometry = C26H46CrN4Si4 | MND = 4
Cr        4.16921475114005    2.99433716004724    0.21121875215332
N         3.43093473369647    2.40523549845931    2.00663823834635
Si        2.07119378422867    2.77880970593729    3.02030120841914
C         0.89874655945953    1.28957259934269    3.31169643175499
C         1.18293944492437    4.18247818274976    2.07311473893961
C         2.59236790734782    3.45530815797071    4.73610533516053
N         5.56251771457380    2.26498883156077    1.49378766126261
Si        7.11501225407089    1.49248847201662    1.39720320402088
C         7.40936204328044    1.31778116404799   -0.48401501499861
C         8.52821641215586    2.49231975344436    2.22175138172327
C         7.11422889660018   -0.26217820782653    2.16794219742173
N         4.91296162140210    3.83308829056059   -1.47927792256681
Si        6.31120202557933    4.75072697161327   -1.94718237133989
C         5.86238866923437    6.47923587285502   -2.64304804142284
C         7.25119129648018    4.99933532566227   -0.30061150255340
C         7.41070570967774    3.86557450080872   -3.24529197817396
N         2.76674978916262    3.47737138727740   -1.17377168118313
Si        1.17371211890466    2.95292163725896   -1.62482168590535
C        -0.16611678032880    4.31300226184859   -1.44547792446550
C         1.09744113740346    2.29114100052438   -3.42180392703509
C         0.83192973399795    1.49350479547616   -0.43770848488339
C         4.63833932231087    2.04799341013126    2.41794702372475
C         4.91975858443523    1.47831437177456    3.74073545582285
C         4.21127526484205    0.36873692316844    4.19508406788741
C         4.48332893327396   -0.17037932588678    5.43797079026337
C         5.45624730019583    0.39664387540366    6.24618997822686
C         6.16042057004428    1.50487803483890    5.80211474329861
C         5.89922264987020    2.04074123967769    4.55545881997903
C         3.69718111130164    3.94340541988747   -1.99367090470243
C         3.41466018396410    4.51490860584181   -3.31537577527016
C         2.48293508006680    5.54070782484354   -3.45417283957281
C         2.22270025598716    6.08174057789428   -4.69872552330200
C         2.87952924948878    5.59934819927951   -5.81998882623732
C         3.80390872370537    4.57488902081351   -5.68903102163732
C         4.07545079955814    4.03837166920354   -4.44485156956675
H         1.18406289230146    0.72587830983545    4.19473530440014
H        -0.11730178076793    1.63868305604165    3.46623349998642
H         0.88474085731403    0.60616857535067    2.46899918401725
H         1.72092942127308    4.39948313508367    1.15142164448576
H         0.16796497673776    3.90701777829949    1.81052737207916
H         1.12997067413716    5.09369937478541    2.66034632023281
H         2.96156040555260    2.66960196922176    5.38708535601653
H         3.37997100087422    4.19706330705045    4.64176443186974
H         1.75201994815197    3.92734573172352    5.23581159441941
H         6.53618567543804    1.67677206305532   -1.02740319798618
H         8.26496137748834    1.89941751288640   -0.80771472493638
H         7.59074980073178    0.28657761973687   -0.76976554192488
H         8.63517141005633    2.23960696941104    3.27221036677317
H         9.47369122861621    2.26825501462118    1.73798677749181
H         8.37029005301651    3.56346907010082    2.14979913033357
H         6.24025141780294   -0.82656493279447    1.85637818318596
H         7.99407989579938   -0.81884200610286    1.86031217783972
H         7.11042340905572   -0.22853678812910    3.25250515163988
H         5.10797081322590    6.96406191030946   -2.03047169667865
H         6.73520136396331    7.12457977414777   -2.66470721376237
H         5.47254868800422    6.42118034926063   -3.65402029555278
H         6.70982298711785    4.50962161211347    0.50765017850802
H         8.24745668334060    4.57396928795833   -0.34145611057367
H         7.35755185281293    6.05063575449689   -0.05255949949753
H         7.36956972870259    2.78537979254087   -3.15107135529535
H         7.11692903843666    4.12441120199396   -4.25802045844576
H         8.44689931142260    4.16494196208464   -3.12366468708172
H        -0.27388255063249    4.88890452847784   -2.35957714554752
H        -1.12984193501813    3.86100684886957   -1.23327420513682
H         0.05500069011532    5.00429617030663   -0.63886052632757
H         1.12798143053860    3.09379565512871   -4.15134201373563
H         1.93239229325690    1.62889747388068   -3.63086413993879
H         0.18211037808155    1.73152121017292   -3.58816672011991
H        -0.00235948031090    1.70422045231728    0.22151057582608
H         0.59718275089604    0.58154376941857   -0.97729157801045
H         1.70937368050310    1.31043295270652    0.18128196515703
H         3.46348134630194   -0.07297433613216    3.55495960198514
H         3.93772254036441   -1.03802641624533    5.78003389198644
H         5.66497875376969   -0.02355630447909    7.21900332039134
H         6.91442138575926    1.95228111290242    6.43363604215325
H         6.43470251031261    2.91002438170982    4.20669036652564
H         1.98447868141367    5.91761765600687   -2.57466881301267
H         1.50651105117845    6.88469080168761   -4.79807732905471
H         2.67168860535702    6.02061241381381   -6.79253897196351
H         4.31250501540847    4.19342397127385   -6.56271889703701
H         4.78562187066056    3.23356704453757   -4.33548034929487

