111
CSD_code = SOMYIC | q = 0 | S = 0 | Stoichiometry = C52H52Cl2P4W | MND = 6
W         4.68869176284999    4.29609291629121    4.16715649658521
Cl        2.89669760267120    2.94215818143442    5.15157570649621
Cl        6.48142603112928    5.65026486237303    3.18368094096224
P         5.43452142894061    2.63549613125880    2.51990145416296
P         2.89999409749297    5.03527509042744    2.65617434427386
P         4.36268801820113    6.27313578678775    5.58466430890724
P         6.04985106434560    3.23123263524519    5.91210598844689
C         5.88008149068769    3.33684628072917    0.87954772084340
C         1.28010562006222    5.31911218168173    3.47930617928660
C         5.92033129629432    7.08727632642785    6.12496677515724
C         5.68240102090817    1.44898727026107    6.17768260302193
C         7.16607114246634    0.44910642734171    3.10428153857936
C         8.41175013634677   -0.10815342813980    3.33624370826869
C         9.54680151587444    0.68315071511238    3.31138063686823
C         9.43123863014606    2.04147296510490    3.06789986617092
C         8.18775831029064    2.60495353570851    2.85640449348290
C         7.04205987705276    1.81239585263683    2.85808199069301
C         4.35297488553397    0.70187279485344    0.73238744170892
C         3.62719275165024   -0.44299114343298    0.45566714742351
C         2.98694528867175   -1.13232119875051    1.47074209669335
C         3.06661371172251   -0.66437192350303    2.77147910461730
C         3.78800114423743    0.48101113585936    3.04906436758483
C         4.44391352572513    1.17559151994923    2.03617934369948
C         4.23696759811328    6.73473114908375    0.93348125225105
C         4.38868516097629    7.79406682265508    0.05899541504194
C         3.32596921884050    8.64802498584279   -0.18295266046760
C         2.11853582362268    8.43618548196912    0.45970743259042
C         1.96376018143216    7.37387978016377    1.33226667229040
C         3.02352788748408    6.50795517580483    1.57720400797599
C         2.47331292923096    3.97303609725998    0.04840098794315
C         1.99200876282101    3.01801768888788   -0.83038569000202
C         1.33606610159266    1.89689998913865   -0.35315877040065
C         1.17684029374893    1.72407781785138    1.01155346586787
C         1.67448610534719    2.66436083205021    1.89269438124143
C         2.31539410766922    3.80763696760880    1.42032265156895
C         2.37041828543433    8.26151208232274    5.13911333385724
C         1.86676107742736    9.37812519286907    4.49441168616063
C         2.59585183318433    9.99490273769587    3.49281972595333
C         3.82861443020841    9.48171453159142    3.12590235629183
C         4.32535241806592    8.35511201870070    3.75250364357042
C         3.60785470685113    7.74024054626371    4.77616707682557
C         3.77737321278508    6.94454056100302    8.28846558615589
C         2.96764364192368    6.92564165059920    9.41008104136629
C         1.77323536361645    6.22647944106039    9.40346539526665
C         1.39268973570527    5.53326158131396    8.26685863320652
C         2.20187769410144    5.54832452350579    7.14684748847121
C         3.40064156281632    6.25654499140287    7.14068379226057
C         8.52508659783383    4.40700129420376    5.54539148394898
C         9.90358252978590    4.49968301063813    5.57691506733269
C        10.66036587488284    3.41147014498860    5.97717013733634
C        10.02796962847021    2.23427922098768    6.33773707117689
C         8.64799249966894    2.14097834434130    6.31027668044876
C         7.87959633363238    3.23012162514405    5.91505608540557
C         4.50532816691623    3.50689855678192    8.20196571418190
C         4.23282058878117    3.86054492926899    9.50922998656189
C         5.18685383332605    4.52214118281273   10.26409842167109
C         6.41581093142294    4.82397502243347    9.70420345433009
C         6.70038327152525    4.45254733420967    8.40149610966371
C         5.74846583502120    3.78524490661225    7.63794919751411
H         6.28958931315594   -0.18481437805456    3.10025376109229
H         8.49437817186855   -1.16893008956655    3.52689215836431
H        10.51838804163573    0.24262845122702    3.48035650325320
H        10.31262683184988    2.66524321174325    3.04826579030127
H         8.10356345983382    3.66936341494157    2.69038383379138
H         4.83878256884693    1.21759059052436   -0.08030333992085
H         3.56414538522776   -0.79965924594921   -0.56251898215735
H         2.42489059952684   -2.02766305073831    1.24764351924499
H         2.56445640482162   -1.19017266965476    3.57070739333012
H         3.83372550751289    0.85583974698396    4.06019841102971
H         5.07208122336375    6.08173522884805    1.13684697422043
H         5.33797888016651    7.95433499421777   -0.43149439776302
H         3.43855960661528    9.47768097299806   -0.86586661270523
H         1.28674541750160    9.10216806726078    0.27937216976350
H         1.01133444769878    7.23588926291273    1.81836642372185
H         2.95847332609152    4.85898755400582   -0.33889057534107
H         2.12160135753217    3.15841214965390   -1.89430477863619
H         0.94961641705562    1.16048723727311   -1.04231748184925
H         0.66742093859686    0.85077520393302    1.39127727327495
H         1.56734140287912    2.50995120463365    2.95664646600649
H         1.80246640071675    7.80427275749515    5.93815758259914
H         0.90328621074251    9.77265638573175    4.78510672023411
H         2.20501266546492   10.87312501465701    3.00029618059790
H         4.40255792565303    9.95737188552688    2.34445732442957
H         5.27712354144011    7.94666637499890    3.44422567779103
H         4.70278128188487    7.49650242250012    8.32572608093797
H         3.27312384916753    7.46428057489621   10.29577064283920
H         1.14447623826337    6.21876013149295   10.28206302504439
H         0.46603121091770    4.97782299677547    8.25297874557599
H         1.91373613668669    4.99208756964665    6.26787445732476
H         7.93718890761691    5.24960823829551    5.21448677755820
H        10.38705840033618    5.42119735255063    5.28625038594350
H        11.73840184281753    3.47824423212972    6.00433284443647
H        10.61296076597197    1.37949750674469    6.64603054506929
H         8.18495160484353    1.21005537897627    6.59555098012873
H         3.74701958450826    3.01232470515423    7.61224708666470
H         3.27088340719235    3.62331684211308    9.93906538192212
H         4.97333247081172    4.80089661640400   11.28552178401945
H         7.16446174285278    5.34204238588308   10.28692430576209
H         7.67514867886216    4.66896294363384    7.98527440924079
H         4.97071535575054    3.60576461853170    0.34233092319306
H         6.48180938013825    4.22998409452977    1.03959886170910
H         6.46672571331779    2.61923726339688    0.30561384753805
H         1.09713363269415    4.49761761353305    4.16988925373565
H         1.31576494154959    6.25631531503772    4.03457412988452
H         0.47671329391841    5.34012182866043    2.74273970789598
H         6.39093298712326    6.48630842397220    6.90299149133237
H         6.58822951227542    7.15429818800050    5.26775398517327
H         5.71712209837233    8.09475470087009    6.48856831177872
H         4.60159818279710    1.31827107026539    6.18393297746859
H         6.11179891711639    0.86603044324453    5.36296161128644
H         6.07881923888250    1.11690313244036    7.13737688306273

