82
CSD_code = SOMZAV | q = 0 | S = 0 | Stoichiometry = C34H42IrNP2Si2 | MND = 7
Ir        3.33954565844788    3.91920595885894    3.99455080048443
P         2.36782958538081    2.11729500149714    5.06748394783050
P         1.73804483410316    4.70278624978156    2.52500905410543
Si        4.12126902275826    0.91865093040685    2.90089389791849
Si        3.47088282106386    3.01003492488121    0.69456148443200
N         3.67039452046896    2.44698915152227    2.29307005759488
C         2.78955642885494    0.53669906194259    4.25493294755050
C         2.42987297968597    4.63069617401959    0.84483045594019
C         5.85759831410001    0.86759877474523    3.70897596790776
C         4.06725517469819   -0.51984864724522    1.65678041948743
C         5.10861707450575    3.42632772583739   -0.20390229202704
C         2.48620730805076    1.88917413748155   -0.50201976968222
C         0.56250547579367    2.00805356878658    5.35934121826077
C        -0.19287213692566    3.17302629556950    5.31678493554594
C        -1.55883963447937    3.13278487729965    5.52291537070438
C        -2.18169641110643    1.92237302170290    5.77859376659891
C        -1.43221191588273    0.75941776897614    5.84326502855842
C        -0.06470938483747    0.80046779316969    5.63943748157513
C         2.93309586420232    1.87506784982846    6.78667859429827
C         2.22048568633798    2.42912308148956    7.84644535198480
C         2.68960368784183    2.31451328785021    9.14230952758190
C         3.88090635343187    1.65534342809879    9.39673400397458
C         4.60430196712120    1.11492918211944    8.34624638913220
C         4.13663491090007    1.22864557718782    7.04980748769981
C         0.16960261339758    3.79448501457808    2.30030408619821
C         0.25492455049007    2.40601240620878    2.27082957408889
C        -0.88349290110508    1.63729422960225    2.13027170096311
C        -2.12348023319773    2.24891711508146    2.03002113239169
C        -2.21464665894311    3.62931299924137    2.06155912081250
C        -1.07425384901293    4.40340845145817    2.19596171693209
C         1.13791523226008    6.42131360032545    2.69716334960376
C         0.93747071836878    6.91534708303675    3.98209785601851
C         0.48074243884898    8.20530044259337    4.17900933233106
C         0.22453505579169    9.02208447393279    3.08945717410995
C         0.42594888110923    8.54096326323527    1.80649332198166
C         0.87856385560738    7.24794927884394    1.60959058677690
C         3.57384924295957    5.10175506338467    5.74165402687000
C         4.81670215700115    4.38728890730506    5.50287636423151
C         5.41785515846718    4.56549664377701    4.25318504190695
C         4.74449248943207    5.38069990329694    3.29488443930909
H         3.09703943787459   -0.20268025717008    4.99248575744138
H         1.88901932683656    0.17284775531321    3.76157424675854
H         1.63039333520315    4.67695924986132    0.10563999069284
H         3.07316304334610    5.50150137532338    0.72842536823833
H         5.97109361009267    1.62211142912874    4.48042581651566
H         6.07117763473247   -0.10109545815542    4.15297964938056
H         6.61697657806514    1.05405172691082    2.95622179827219
H         3.07812506940075   -0.65888546275488    1.23754757682479
H         4.74738112799077   -0.31625671941210    0.83882427693028
H         4.37226091816184   -1.45469510330212    2.11424206136176
H         5.75149298648740    4.07342167406236    0.38285401932834
H         5.65800854842406    2.51041741579584   -0.39219469056874
H         4.93557996445190    3.90817829737516   -1.16107738366322
H         1.49699065774158    1.64890775387040   -0.12652793779679
H         2.36570007152747    2.36639748732454   -1.47000476406257
H         3.01600344122097    0.95868727731669   -0.66480489937694
H         0.31118101092045    4.10734966524170    5.10526850069943
H        -2.13909952824567    4.04276942917072    5.47905885393296
H        -3.25023444156654    1.88484931930739    5.93179809755198
H        -1.91652732938285   -0.18320769479252    6.05469131482162
H         0.51731878333798   -0.10824660060860    5.70058792020443
H         1.29081988250942    2.94490071509177    7.65067011516075
H         2.12471351457044    2.74282169757627    9.95781828895946
H         4.24659913391243    1.56628523546049   10.40910711413048
H         5.53839941805618    0.60637724276909    8.53880692008660
H         4.71009849197104    0.81718559266409    6.23276887282392
H         1.23266480887758    1.95405698051525    2.36235727277103
H        -0.81097128085965    0.55932570021809    2.10762788900499
H        -3.01687341309729    1.65006418429212    1.93027144974482
H        -3.18044654885503    4.10794434853293    1.98402557398263
H        -1.15631691695260    5.48061385677993    2.22582016855535
H         1.15762576328564    6.27416378043358    4.82416523921565
H         0.32789512362007    8.57827475593805    5.18152283405201
H        -0.12791765225258   10.03212563962741    3.23920227165220
H         0.22850726282190    9.17648954204980    0.95498058030209
H         1.02676539707682    6.88154207046638    0.60465171274790
H         3.09228371277606    4.86580482554645    6.68947482678564
H         3.58899940516045    6.17793232380574    5.57311869810414
H         5.25665979141250    3.74044703297179    6.25508481722660
H         6.29386323164053    3.99086151085039    3.97566670151469
H         5.16607976634218    5.37478431589198    2.29627210656151
H         4.43099992537119    6.37833203700243    3.59268602114740

