42
CSD_code = SONBAZ | q = 0 | S = 0 | Stoichiometry = C16H19Cl2N3OPd | MND = 4
C         5.62369532307053    1.58533293389924    4.24950897042062
C         4.79533227574463    1.65742733516824    3.14010280026345
H         3.86943021166675    2.20882471841953    3.19623144552951
C         5.17417595661170    1.02484935327616    1.96573408421873
H         4.54483014537166    1.07372362573109    1.09095372018641
C         6.37649537442750    0.33497881371651    1.94310325180667
H         6.71508893931808   -0.16598447049840    1.05114049739230
C         7.14728789826397    0.29493282782361    3.09148948361236
H         8.09626663995822   -0.22829014019156    3.13116290859437
C         5.29344734002587    2.31254589033977    5.53452345545038
H         5.71052026239237    3.32504938575262    5.45840180693915
H         4.20483469730351    2.40658657325068    5.64225411089812
C         5.09803486136716    0.57508638555152    7.28535220319710
H         5.77280353734507   -0.06757707251310    7.86596098437736
H         4.63887969233625   -0.02297677489533    6.49177660352079
C         4.00745620392508    1.11857511226794    8.22776618386310
H         3.19830317030744    1.58692841470988    7.65953039287918
H         3.58632880481950    0.27818906192600    8.79074971066447
C         4.07144986090552    3.35927943745382    9.18554052371121
H         3.26434172552454    3.53011763312698    8.44317000834756
C         5.58481723247614    1.68358473759379   10.07475057188871
H         5.72115314116332    2.52672806658416   10.75865557942347
H         6.53092298834269    1.50294359626563    9.55070600337922
C         5.18631886048757    0.44853634062005   10.83449396379327
C         5.96105710480500   -0.70119945730945   10.75719283995697
H         6.86137929097942   -0.69774871023642   10.15960214190568
C         5.59058854046138   -1.83758465051034   11.45596494012430
H         6.20079489805185   -2.72628939663474   11.39593958774301
C         4.44065945551182   -1.83663723823666   12.22698268928263
H         4.15203744856262   -2.72372094385279   12.77116381565754
C         3.66225879920799   -0.69328895615686   12.30442867372670
H         2.76828953769972   -0.68692056066557   12.91074086259650
C         4.03461962073880    0.44504232567238   11.61289683932474
H         3.43524464607202    1.34240758058187   11.67929814877322
Cl        8.46324883025960    0.61265643770395    8.07659772933639
Cl        9.52788783234343   -0.24638667203666    5.20423906949812
N         6.78062292561872    0.90505728142370    4.21795066536679
N         5.90345980153488    1.64344299043757    6.68474573592374
H         6.12726268230227    2.31640143485545    7.42120091747201
N         4.54552234346099    2.10152542621526    9.13550497702048
O         4.46058456715947    4.23209826537189    9.92090718001465
Pd        7.69986653209981    0.73795305799804    6.00088392191420

