69
CSD_code = SONJEK | q = 0 | S = 0 | Stoichiometry = C34H29ClO2P2Pt | MND = 4
Pt        8.08413696730464    6.80318312132871    2.82698349407223
Cl       10.28506956934262    6.78200513356876    2.13121793243106
P         7.21434400266154    7.77891885718819    0.85187697952426
P         5.89128309293624    6.49502963084490    3.43415052848562
C         5.36717737022902    7.70828699564942    0.97451337731148
C         4.96111867070270    7.78482866648706    2.44164505992590
C         8.55492974621781    6.30669714160656    4.70148301425629
O         8.96262523401352    7.01949548398169    5.57237246794510
C         8.12825398628709    4.89811114950648    4.66480391234703
O         6.91408331600417    4.62526159888985    4.61933596723277
C         7.50174585172996    9.55306558609056    1.13767216506895
C         8.03148233340882    9.95068348852257    2.36143872802129
C         8.23544840003224   11.29250504584972    2.62712774701344
C         7.91447851318460   12.24193861439586    1.67070452939907
C         7.39244574393244   11.84977183325505    0.44771994455534
C         7.18444476527132   10.50975961674511    0.17847498025428
C         7.58999011399283    7.61633559717336   -0.91425302915363
C         6.67156669313306    7.26127923836980   -1.89537771873874
C         7.08632254361052    7.13851705794039   -3.21041356030149
C         8.41101476774227    7.35605345337381   -3.55024111549688
C         9.33379050497313    7.68918142023819   -2.57004296050548
C         8.92800098819571    7.81290219159910   -1.25617382825813
C         5.24990466037243    5.02915528911083    2.58214941341888
C         6.14828300458649    4.30109628472202    1.80869737655499
C         5.71338389044804    3.21111813395489    1.07820211800734
C         4.37718073755618    2.84546349879671    1.11508792938210
C         3.47699753069979    3.57638576966254    1.87396673992923
C         3.90735624139679    4.67082937264128    2.60333249762093
C         5.09427620844515    6.73124547099426    5.04307590457352
C         4.41865347163381    5.71563996162827    5.70727660343921
C         3.86087226725361    5.96235251969533    6.94855183086636
C         3.99071174730545    7.20952488603264    7.53814768193433
C         4.69339241200785    8.21324807344655    6.89124025855002
C         5.24694666762718    7.97562083438049    5.64711250268813
C         9.17349813808888    3.87389367272600    4.52341943102502
C         8.79365708033547    2.54026890779458    4.35782684240433
C         9.75398814381467    1.55623715644219    4.24150882733493
C        11.09884819354553    1.89294890016143    4.28354912962965
C        11.48232754870327    3.21578159418042    4.44467762474469
C        10.52861319117999    4.20722646183381    4.56893401337679
H         5.03603733720623    6.75486451090568    0.55034173962971
H         4.92606706863293    8.52769740406826    0.39725226244874
H         5.21052511167343    8.77168153758551    2.84382944538146
H         3.88188178328036    7.63677749207296    2.55537050181954
H         8.30491959975626    9.19279556138557    3.10052774326586
H         8.65113433176597   11.59684469248478    3.57604632257499
H         8.07776697590978   13.28991990479119    1.87432973896420
H         7.15052122776703   12.59185178358648   -0.29920284416156
H         6.78752895577662   10.19964328768534   -0.77900154904744
H         5.63620692865619    7.08575782082367   -1.64221400579271
H         6.36988900874767    6.87029274290560   -3.97357256558815
H         8.72606379604903    7.25782602618891   -4.57856017500644
H        10.36957347990008    7.84568830671136   -2.83184667570948
H         9.63912562387831    8.05057981044364   -0.47558691893506
H         7.19840654642040    4.59304988538070    1.79291163601819
H         6.41472849496943    2.64641642594725    0.48189183143466
H         4.03537924962111    1.99078593938132    0.55001850104641
H         2.43451759664102    3.29305754082955    1.89567953265343
H         3.20202606997800    5.24687966799831    3.18642901890234
H         4.36002212441085    4.73471210735079    5.26127456473565
H         3.33114266939954    5.17452610996622    7.46410992190286
H         3.55858320659957    7.39437848173936    8.51056026834478
H         4.81702070590829    9.17766293832566    7.36144092781671
H         5.81924017823141    8.74666699198353    5.14730080246195
H         7.73982288025963    2.30660836533573    4.31935940732157
H         9.45841044763146    0.52512696985583    4.11307443131682
H        11.85013177542229    1.12256353181414    4.18802040451463
H        12.53022807292195    3.47429552480086    4.47137422289950
H        10.83025444192980    5.23690092663993    4.68846616822897

