28
CSD_code = SONJEM | q = 0 | S = 0 | Stoichiometry = C12H9F3MoO3 | MND = 10
Mo        6.45669236409698    7.46643825285499   11.05657190641841
C         7.85723193169311    5.77890366586479   11.96280739294243
H         7.90567207590380    5.36561142285916   12.96183661632140
F         7.29538945529458    7.80944756672275    7.50051670510020
O         3.53247939318435    7.14391232142227   10.15248275570523
C         8.70790774284699    6.78864239901350   11.45602269007341
H         9.50234464805973    7.27593729837712   12.00650678386218
C         7.08407799953904    5.27270858461066   10.91082145972079
H         6.46553396339848    4.38517766022731   10.92350329320058
O         6.27497731774262    4.67009635579863    8.12285290165598
F         7.01650515718933    6.21975354506486    6.06924376771834
C         7.54534910774213    6.50713176251408    7.25130645232726
C         7.47104667300061    5.96719083262347    9.70741214117695
C         6.93462237589530    9.20361622679036   12.48642135769757
H         7.70099622412803    8.83683403903251   13.16582241836974
H         7.09347781876233   10.23142607097900   12.17856910894005
C         7.00238419508362    5.59816661567712    8.39431664566780
F         8.88253864600998    6.40030514042025    7.13026148148263
C         5.46340647559420    7.44452413693715   13.12722706957976
H         6.19886249035216    7.04896507209656   13.82198732005047
H         4.46024831541825    7.07988181763404   13.31645552878424
C         4.60612089345500    7.25269737043327   10.53025631267874
C         8.46996018549649    6.93655375032746   10.08383930922267
H         9.07638585819782    7.52109350809340    9.40517427275968
O         5.72258546349014    9.83677134392005    9.23502248294436
C         6.01918567689778    8.97468032306233    9.92272797194499
C         5.61295420051326    8.78690244910387   12.73360937294316
H         4.75746335101377    9.44183046753756   12.56412448071133

