47
CSD_code = SONKIR | q = 1 | S = 0 | Stoichiometry = C24H17MoN2O3(1+) | MND = 9
Mo        5.70180664403669    5.65621932188034   13.62417657946350
O         4.28292404313788    8.59836111230915   14.36387509455782
O         6.32094227666636    6.52503916038907   16.51730221431376
C         6.09731414446755    6.18270304451537   15.45103074882092
O         7.27707949292554    8.31028432559368   13.70960101578077
N         6.59156481197414    3.90979114455679   14.39514805406753
C         6.67119209242714    7.34776842643363   13.66397981800738
C         3.34584548724651    7.88142893788984   14.06535016841190
C         0.89919592779802    7.45086345397792   13.76673004910498
H         1.12029767611233    6.56810011238644   13.18321047985092
N         7.37816904675145    5.23310024188072   12.41796782961191
C         8.15567063125506    4.15896461637242   12.68183528408961
C         7.70556114918155    3.39975947945361   13.82550901507244
C         3.44762436245823    5.26186003367641   13.97982164638740
H         2.91631286241880    5.04629295379915   14.89881018555173
C         1.93869848675382    8.23192492394534   14.28033663389278
C         3.85842323839315    4.31723941318841   13.01004145290840
H         3.72106806071771    3.24449946915415   13.07913963203491
C         9.25286817356263    3.82577215622535   11.87962148039449
H         9.86342657610381    2.97417454348366   12.12885667017101
C         8.71323913222070    5.67665775445466   10.48520047859794
H         8.89310667148356    6.29889557423390    9.62411824901463
C         4.29006434953367    5.01175646338820   11.86180925918611
H         4.52142087847147    4.55883848744746   10.90517858238759
C         6.05030659496679    3.24331412272299   15.42273011402377
H         5.16158335301784    3.67837099142151   15.86166765967804
C         3.64110015293935    6.55823096216087   13.42860072239621
C         9.54289407594711    4.59376085170516   10.77394659927038
H        10.38738065336606    4.36217607932869   10.14548699146199
C         8.30957883581823    2.23104689335990   14.30337096636412
H         9.20767940724062    1.85979360511874   13.83899188667458
C         7.74847659838859    1.56528155923280   15.37020235750100
H         8.19931042429580    0.66761056184292   15.76109237838076
C         7.66080920268781    5.95671157496258   11.32668951127334
H         7.01973627008437    6.80741889579704   11.13526988812830
C         1.63959828505099    9.38490318062872   15.01288228312460
H         2.45662737787555    9.97607635667532   15.39787545959326
C        -0.70072891146261    8.96038685617880   14.72715984196844
H        -1.72837020177771    9.24096657849715   14.89994094297128
C         4.16472151434924    6.39892663425412   12.10873348724641
H         4.23562973865886    7.18946727349884   11.37177869606525
C        -0.41242661446563    7.81963806108224   13.99105238837330
H        -1.21553593116481    7.21985191351161   13.59077217703564
C         6.58165807494968    2.08109521045585   15.93336863814261
H         6.10308134569649    1.59057466310577   16.76482516562383
C         0.32552165750427    9.74263052754966   15.23657957403796
H         0.09745187993781   10.63047149628389   15.80553164897639

