80
CSD_code = SONLAJ | q = 0 | S = 0 | Stoichiometry = C38H31F3O3P2PdSSi | MND = 4
Pd        5.22116765215591    4.17416799638550    2.86378984797070
S         6.00393722117181    2.57584245900299    4.53681640563419
P         7.26602702586117    4.45684446950785    1.95043761956023
P         3.11254066883704    4.30661401351453    3.65536723269952
Si        4.48252865487367    5.54762850967434    1.21255199428983
F         5.99863368849070    1.78889437431958    7.09142798179590
F         6.59889698524889    0.22511554162875    5.73331726507687
F         7.96003310392744    1.83303286819831    6.19371686297039
O         6.19338770096324    3.91838697946011    5.04169189345011
O         4.63275009856264    2.12547323750647    4.43581534423356
O         6.86358076553813    2.18787397325933    3.43872991960198
C         6.01818098761053    6.58607546914272    0.71903539713012
C         5.98132672695609    7.77123683776306    0.00085917809332
H         5.02920642195882    8.18153581128816   -0.29866108615816
C         7.14763347524317    8.44065828116205   -0.33193340632833
H         7.09904666013913    9.36901145414682   -0.88228149144719
C         8.37634261006021    7.92638707633672    0.04751822833696
H         9.28573341252326    8.45359330908060   -0.20143962395217
C         8.43538736776862    6.73331624087011    0.74649615662069
H         9.39122438833969    6.32974234023410    1.05271711339054
C         7.26494284365874    6.06393434393059    1.07582986383742
C         8.68259450464010    4.53851526106762    3.06378959022153
C         8.65372194493331    5.57924854844456    3.99057412653587
H         7.85312640052493    6.31105401441978    3.93641036750202
C         9.62175538831955    5.65311924664314    4.97225235267810
H         9.60194427851725    6.45623183914586    5.69445295663757
C        10.60987882339725    4.68236714954267    5.04031514865121
H        11.36169318156978    4.73350270884163    5.81422686864536
C        10.62463706210339    3.63557969147324    4.13324078521068
H        11.38434448993227    2.87104774515934    4.20512502223075
C         9.65844422795450    3.55383904955605    3.14585723047114
H         9.64121647042223    2.72148471120741    2.45726779635471
C         7.63925107842058    3.29314059724598    0.61237094579093
C         8.82717093852106    3.30349402388239   -0.10926391008579
H         9.60125708686176    4.01790215843260    0.13258389602864
C         9.01306262313799    2.39372679766999   -1.13519089195277
H         9.93766338879746    2.39457994700950   -1.69404892635805
C         8.01796983889432    1.48042576063493   -1.44572869852826
H         8.17157677885669    0.76998371754692   -2.24468837181392
C         6.82921639394322    1.47374110177650   -0.73246470642549
H         6.05771402896726    0.75855645790949   -0.97726443342564
C         6.63840802672574    2.38045856911639    0.29386375935283
H         5.71977630409455    2.38610817422182    0.88485387662554
C         3.02683268752677    6.51222971137728    2.00789915553962
C         2.50543374173463    7.70924417528315    1.54268651738380
H         2.94566716383844    8.18045258935391    0.67742938517908
C         1.43450642399548    8.31616410958974    2.17893833509324
H         1.04905120067391    9.25530951970553    1.80946497382842
C         0.86360103162928    7.72695317656285    3.29454198449455
H         0.03702452087367    8.20620172563893    3.79857629733105
C         1.35712169882909    6.52156885971182    3.76326345031783
H         0.92375369727462    6.06058233204250    4.64101900456760
C         2.42712740486970    5.91473008472131    3.12068555379077
C         2.86584304854280    4.27979847687146    5.44278605665840
C         3.59285327064130    5.24012108156550    6.14467327035987
H         4.18589831655865    5.96191166103034    5.58911424477673
C         3.57307675623060    5.24402958210251    7.52502439054411
H         4.13966764271180    5.98159972047565    8.07420161320413
C         2.83803730103037    4.28476467371585    8.20599463046695
H         2.82955103782098    4.28065686635938    9.28614322491404
C         2.13055928347061    3.32026862254333    7.50781801863235
H         1.57440729908586    2.56552726685375    8.04478409618658
C         2.14605737134844    3.30766359924280    6.12359553492102
H         1.62197865333089    2.53948558108697    5.57320188523754
C         1.98115626943101    3.11722098914530    2.88741680880566
C         0.60510264987475    3.12142241623498    3.08552054745298
H         0.15636617423251    3.84854685683212    3.74735943512438
C        -0.18403110637496    2.19403841936834    2.42830477020059
H        -1.25327323490394    2.19131352165857    2.58286849647539
C         0.39350006303257    1.26858692710085    1.57314838862698
H        -0.22811184005209    0.54532877127608    1.06609805039757
C         1.76457737594066    1.26764973897810    1.36794842078067
H         2.20965202109662    0.54366773747957    0.70137442662993
C         2.55781206744942    2.19324181128004    2.02090582558876
H         3.64257272187102    2.20381254715030    1.89308092884688
C         3.78966395218441    4.78666576389416   -0.42420402114655
H         4.55107685322689    4.20958575277167   -0.94067216987804
H         3.45513730798352    5.57348894227592   -1.09260721464353
H         2.94340126924788    4.13634901619704   -0.22220506220098
C         6.67291618439586    1.54234451533229    5.96018326425473

