83
CSD_code = SONLUC | q = 0 | S = 0 | Stoichiometry = C32H45I2N2OsP | MND = 5
Os        2.52328341788716    4.96141918649669    0.58852215496638
I         5.07683820280600    4.99759255838368   -0.31569287347748
I         1.34901653861224    5.46901658131545   -1.73441490231180
P         0.40918995240267    4.83746436757410    1.69105816540901
N         2.73116031721893    6.55904869483533    1.26562703686724
N         2.57440018249409    3.21533662666918    0.64843505021935
C         2.72829135896033    1.92402700303315    0.87258816750803
C         2.11688161165109    0.98832224442331   -0.01979559266984
C         2.25081506487689   -0.35984029979621    0.22982143968170
C         2.95926717597623   -0.82435104937506    1.32709688347560
C         3.57559105357166    0.07562282099704    2.17824930330555
C         3.48711102271063    1.43863908624187    1.97718682883223
C         2.95263118525074    7.65745265529591    1.95994112593976
C         3.52526851296758    7.61077266944886    3.26469872464262
C         3.73682661517311    8.79167027809945    3.94630943868360
C         3.39743669984543   10.01431565000584    3.39483244159294
C         2.83504836787818   10.06668398466821    2.12924741982042
C         2.59886179216705    8.92376265163410    1.39750371592075
C        -0.32874971372540    6.47168518204196    1.95572986910818
C         0.02118892778343    7.22078005864969    3.07577241178011
C        -0.45117852606373    8.51091572449879    3.22440578417868
C        -1.27090907140515    9.06527318942816    2.25526554825716
C        -1.61022158668524    8.33004591647169    1.13115229828661
C        -1.13404952017078    7.04172411154771    0.97271415600355
C         1.42023432057967    1.51690985976313   -1.24741802552262
C         0.32094956022120    0.60196505019997   -1.78067918498581
C         2.47027143855243    1.78259413701090   -2.33275078431589
C         4.23215723298926    2.39262300060930    2.87578315136271
C         3.89424654993561    2.17693277725635    4.35183891512882
C         5.73800031513357    2.24914740213081    2.63904502069203
C         3.92637250289607    6.29053392572076    3.87288295216176
C         5.44370469736952    6.11311841992387    3.77102608571973
C         3.46584715115851    6.15477025325977    5.32607465628812
C         2.02893094458941    8.95999881765815    0.00345664914773
C         1.20089030517322   10.20682773660589   -0.29408096865212
C         3.16878827759003    8.83186498573810   -1.01385471197770
C         0.45307678273166    4.07184794725089    3.35399228255027
C        -0.92340487502921    3.85506052062677    0.91494953930520
H         1.79830773205817   -1.07064162996769   -0.44315834266080
H         3.04619825454916   -1.88537440556744    1.50521646774623
H         4.15144773333321   -0.29681871720038    3.01210361265851
H         4.18298031964504    8.76101889612723    4.92882836697706
H         3.57652271355094   10.92514324697719    3.94584937541209
H         2.58123247613873   11.02613784320738    1.70805585052618
H         0.66848325625546    6.79837298269779    3.83059678430511
H        -0.16967415398680    9.08657817636423    4.09352087281355
H        -1.63881757724085   10.07359459378547    2.37324919452079
H        -2.23615918379342    8.76469531913944    0.36658841124746
H        -1.38206501112275    6.48635765374412    0.07951182484006
H         0.95600915405735    2.47560982675429   -0.98733181195316
H        -0.36140244295888    0.30362219077312   -0.98594031214743
H        -0.24675625450933    1.13013109320132   -2.54352307864535
H         0.73968039672530   -0.29170739533498   -2.23648862588949
H         2.95982176714331    0.85431729363413   -2.62009081721670
H         2.00031155070183    2.22310972792183   -3.20884540640058
H         3.23202496531155    2.47070368816963   -1.97107136643560
H         3.94610590295881    3.42111092889220    2.60694618122258
H         2.82084108308692    2.24582431311612    4.52321443303541
H         4.23066215498237    1.20002550440267    4.68954918204328
H         4.39158813136609    2.93001115724669    4.95980498421936
H         6.07051775572417    1.24415068355750    2.88858616995937
H         5.97993477876936    2.44399490451537    1.59712014884216
H         6.28659245092120    2.95950363488959    3.25326616196612
H         3.44930640383209    5.48502491826378    3.28968883792935
H         5.74530009167975    5.17094850538687    4.22381192397932
H         5.76101375834717    6.11337058306341    2.73079648351959
H         5.95453512136475    6.92448671543985    4.28496135318553
H         3.59401786860060    5.12838033183653    5.66539601142141
H         4.05025742122675    6.79660024238363    5.98018404646789
H         2.41634393502743    6.42663503385907    5.43547973337299
H         1.36570020682427    8.09316092204736   -0.10654629965933
H         1.83407577574770   11.08587641798951   -0.38858313612030
H         0.67658496642332   10.06943827522552   -1.23705346475740
H         0.46471752254521   10.38000878212657    0.48849307061675
H         3.75142894286584    7.93106485467125   -0.83499923837959
H         2.76633527207499    8.78424785769344   -2.02293831043225
H         3.83830997506286    9.68650017377495   -0.93876499974832
H        -0.52410689650990    4.16537603097257    3.82978421007176
H         0.70237252657335    3.01637659088757    3.22969377276763
H         1.21362248619345    4.53689400774416    3.97940634232148
H        -1.84380783877734    3.98962021631425    1.48483266357372
H        -1.08460674454962    4.15552317060827   -0.11969140521910
H        -0.63145353434642    2.80392013239498    0.93216997129816

