48
CSD_code = SONMEQ | q = 1 | S = 0 | Stoichiometry = C19H24AgN4(1+) | MND = 2
Ag        4.58754520243649    9.13975245961922    8.49984102317721
C         2.10289642516503   10.91561071027552    6.50523834823321
H         2.04098231679327   10.23855942808207    7.36118696056391
H         1.50865331350686   10.51181379072425    5.68439562880524
H         1.69683373260835   11.88827746319336    6.78667815587129
C         6.98880232018655   10.44169144384276    6.23190979874106
H         7.62760212854544   11.26430947021771    5.90246641705040
H         7.21294450035348    9.58547332381292    5.59146296851970
C         7.05930000947532    7.29176736533554   10.20748831180195
H         7.23844170967574    6.49270832063917    9.48500443284415
H         7.74503738279548    7.14081853460548   11.04457923382590
C         2.19757751996141    7.63695785830030   10.83528618293211
H         1.83377801680035    8.16762306698677   11.71638292135042
H         1.59988015005044    6.73492304573782   10.69774960853782
H         2.08755354784521    8.27928173905938    9.95792391164653
N         3.47825111878083   11.04164307209928    6.11135529785385
C         4.52227591574597   10.43436898476463    6.70899041399843
N         5.60758948739328   10.84037818240881    6.01214628256028
C         5.24195846628411   11.68047924437222    4.99940819742829
H         5.94986845905212   12.11528359926391    4.32421370779897
C         3.89496062066274   11.80883849338889    5.06200668331828
H         3.21972631978950   12.37594797765172    4.45554006438823
C         7.27889792004894    8.65335201486892    9.59506956645305
C         7.19501469810789    8.83952337089918    8.20472594980985
C         7.24418351703833   10.14338534396674    7.68855213686443
C         7.44877500193616   11.23271733815769    8.54553026592183
C         7.59821197166690   11.00660465842455    9.90315223992502
H         7.77671447405048   11.84591375071051   10.55827775767757
C         7.48847253408259    9.73794659488309   10.44989379375327
N         5.70441039637069    7.16489531971297   10.72033253102816
C         4.58919014368254    7.72963255686077   10.20418008659616
N         3.58438297517325    7.29751416006545   10.99126943007542
C         4.05466097048756    6.47916754953555   11.97757034161455
H         3.41674735528270    6.03138484017110   12.71095919127055
C         5.39574101137254    6.39534915242370   11.80494486288874
H         6.13452738212625    5.85643769426931   12.36154570260508
C         7.09096823126160    7.62195271902665    7.31958216798185
H         6.20257047924915    7.03141440027387    7.55664412095601
H         7.96897305526280    6.99208380713901    7.46151955096997
H         7.04032094182251    7.86934161234344    6.26606209197777
C         7.51107867745720   12.63941951672682    8.03104321118333
H         6.60496298725941   12.90509890478517    7.48907826853078
H         8.36167826389120   12.77095365864531    7.36248375608858
H         7.62662333137629   13.33534998388787    8.85697629356694
C         7.59726418959175    9.56368531619363   11.93417089622650
H         7.72655315216346   10.52789575441588   12.41717960587866
H         8.45626542893701    8.94327851904465   12.18869992395726
H         6.70445224639361    9.09529388818913   12.34510170494844

