92
CSD_code = SONNAL | q = 0 | S = 0 | Stoichiometry = C46H42OP2Pt | MND = 4
Pt        5.67654434918385   10.48215438136801    2.55460796430207
P         4.49633981431565    8.90745494850749    3.87291471222818
P         7.26594340174135    8.89416903004270    1.80687992681015
O         6.36563228570086   14.21074571704731    2.36704122954006
C         4.13629791630014   11.81067642453907    2.96631320373487
H         3.70220795506326   11.64717570567590    3.96080036611378
H         3.33485270732944   11.63937954141828    2.23723233389815
H         4.41105938953813   12.86273707089309    2.90724771788907
C         6.61697759271305   12.01630873638234    1.45371037303785
H         7.59236445223282   11.62459852982525    1.13488832467288
C         6.83775756103176   13.08666587241875    2.44658400510208
C         7.65343684062630   12.71693128233882    3.65776283454727
C         7.47375596120761   13.48588925294486    4.80753995890774
H         6.75514045857760   14.29134997624984    4.77237359232008
C         8.19707008355237   13.22697103755186    5.95550853222499
H         8.04732296187560   13.83515276938943    6.83680002562777
C         9.12283739195141   12.19569087848642    5.97230864974691
H         9.69725810301241   11.99343853581162    6.86538534189322
C         9.31858706241426   11.43118985118234    4.83456761828222
H        10.05029118403860   10.63477943769861    4.83999644893292
C         8.59006623277694   11.68580033601195    3.68536694590433
H         8.78902117385644   11.09985398808439    2.79842017538591
C         5.86466502229220   12.49835262169800    0.21768888420458
H         6.45250733524608   13.26150201981689   -0.29651778291088
H         4.91247920399222   12.94548882375717    0.49155005725804
H         5.69138976022592   11.67746192029111   -0.47890948298104
C         2.68641086607320    9.15575129200882    3.90899523116023
C         2.03978534323075    9.20927178450598    2.67591749484986
H         2.62577944440602    9.12263859183973    1.77032002877365
C         0.67186528996877    9.38986167171458    2.60832439332308
H         0.17807975815038    9.43042954016321    1.64810958402076
C        -0.06407748331390    9.53129068650549    3.77391103153915
H        -1.13280599902992    9.67876293030564    3.72460332844152
C         0.57537138234444    9.49730249555152    5.00095589267486
H         0.00530954659948    9.62034312290331    5.91052817230953
C         1.94557282725997    9.31095088619997    5.07250988395485
H         2.43492052778666    9.29981887757057    6.03574389797783
C         4.54921891218391    7.07800799203547    3.74618367584536
C         3.55880358747514    6.34870799039914    3.09728257859691
H         2.69518674953384    6.85143821110910    2.68775776466510
C         3.66290392630631    4.97408518492268    2.98398505983832
H         2.88082996182428    4.42008077951833    2.48550136642185
C         4.75874857946538    4.30876352155572    3.50559074732526
H         4.83657003343072    3.23539021507954    3.41501657943989
C         5.75352459064443    5.02804672911905    4.14695529156505
H         6.61391621741797    4.52015689616713    4.55878181013128
C         5.64944259478610    6.40010336961230    4.26575988959166
H         6.42445021849676    6.95179916417428    4.77730323704176
C         4.99185558585458    9.14407364939802    5.60711919636659
C         5.74286904907524   10.27731807460286    5.90031860298989
H         6.00075711630642   10.96287720926080    5.09564908243797
C         6.15282444100025   10.52591870967887    7.19792428605293
H         6.73560974875911   11.40793542551824    7.41527154860033
C         5.81719694561222    9.64046700174108    8.20850700916190
H         6.13603907641466    9.83072835223189    9.22289483920054
C         5.07289259754258    8.50630140203565    7.92091169881111
H         4.81259470814009    7.81606672037472    8.71056508553845
C         4.65978877439441    8.25429122078785    6.62573602002626
H         4.08482025762804    7.36595891720436    6.40101432558018
C         8.35534597456602    9.27067273071972    0.38544952029203
C         7.84371827458605    9.32397916576331   -0.90753976056403
H         6.81175030342621    9.05965821774187   -1.08933956338458
C         8.65007314607000    9.70768649330434   -1.96308076797915
H         8.24289476779138    9.74061705882060   -2.96309865955559
C         9.97238479969150   10.05417127690801   -1.74091298952304
H        10.59964644350754   10.35714095519568   -2.56594157960860
C        10.48659263712256   10.01452549688442   -0.45559347560585
H        11.51565619048099   10.28873155729063   -0.27428418824677
C         9.68406417211407    9.62934808774363    0.60205380659382
H        10.09601716737447    9.59960461955733    1.60232203372927
C         6.19018797724311    7.62769846985074    1.04926205805954
C         5.02943310422336    8.14043236742836    0.47043510515543
H         4.84165792125371    9.21409259176141    0.53805961887822
C         4.13561648464525    7.30406451239473   -0.16989456191724
H         3.24171578252801    7.70780498465380   -0.62391575565489
C         4.38918923325961    5.94296150673691   -0.22750512705982
H         3.69397162675526    5.28413854758021   -0.72661314356726
C         5.52783768292140    5.42648046768333    0.36641014441893
H         5.71749707738894    4.36347437571162    0.33457457839278
C         6.42916118749955    6.26218090062090    1.00331373247906
H         7.30465797687021    5.84336841257561    1.47653100245624
C         8.42165739106760    7.96127455306792    2.86592624376307
C         9.32734695115872    7.02915877479171    2.36676145836612
H         9.38348693766960    6.84608549435740    1.30220339686655
C        10.17224296534503    6.35759572850359    3.23113521072538
H        10.87005010025943    5.63014893962168    2.84192792443347
C        10.13335913733894    6.61950564176843    4.59232173865061
H        10.79829626106660    6.09279423037936    5.26101472708524
C         9.25463269392336    7.56638710694881    5.09068225383064
H         9.23186442288062    7.78741222163533    6.14819350288731
C         8.40309823160552    8.23488587586575    4.22874304354666
H         7.72303359974523    8.98936133087535    4.60568788107426

