75
CSD_code = SONNIU | q = 0 | S = 0 | Stoichiometry = C26H35B10IrN2S | MND = 8
Ir        3.72576831749403    2.16678257359990    7.15734859302626
S         4.31237231961215    2.76519687762896    4.87282911548116
N         6.10978084582686    1.43929400860565    3.37574684001899
C         7.01583578496734    2.49885197415861    6.72542095342836
C         4.41519679804099    3.74056705781421    7.89486425737321
B         5.73834894459270    1.45040627931123    7.24557794686447
C         2.30319965315123   -0.21648740032016    5.18586224825053
H         3.04357719623285   -1.00981819488055    5.26270603862985
H         2.54923036360040    0.39710887735644    4.31876553158934
H         1.32910680956524   -0.67495435344981    5.00156245642026
B         6.22832212340515   -0.07387490423948    6.49249235182667
H         5.42172988995362   -0.78371168715286    6.02120982756278
C         5.75383458731209    1.81211397441622    4.53196181195661
N         4.76871153733803    4.78481357057595    8.31753308804950
C         0.76901847656721    3.37631109298478    8.49715208766830
H         0.61816348186017    4.17728875350381    7.77601813739197
H         1.30326055316091    3.78430942426579    9.35318083446004
H        -0.21174231305263    3.03968215439802    8.84013057869168
C         3.14521602963857   -1.14019868880541    8.14310895451298
H         2.29186921464647   -1.75197205597235    8.44412525037845
H         3.82652432375043   -1.07074017590442    8.98626566802177
H         3.65914189587154   -1.65112485089579    7.33434684986466
B         6.56708812075541    0.24120892683351    8.21716158884793
H         6.02627113514559   -0.32009786515908    9.09498197372278
B         8.30086235454581    0.68613353568237    8.33539341780350
H         8.92881573859654    0.44711468871617    9.29945333980136
C         6.56101363224537    1.38621781611605    5.69698158994523
B         8.22819942943562    1.82248408596808    5.70512105290361
H         8.59983839701480    2.48745354920648    4.81472949007879
B         9.02360898687236    0.61499394922789    6.70223424258330
H        10.14703902364593    0.32024874698746    6.52749960220511
C         5.32747444247539    5.92061614225634    8.79080082996792
C         0.76289329432635    2.46498033907388    5.41849876805962
H         0.41631898528044    3.46266503940430    5.67945946402554
H        -0.10595255227826    1.85667506270242    5.15808471738623
H         1.39101345062770    2.54294447433548    4.53083562114311
B         7.05356093478868    1.94269418691946    8.33272260680840
H         6.80519697488286    2.69634722231821    9.19851535690800
C         2.37505872346669    1.17643107009113   10.11964533588498
H         1.52170769997081    0.60720873931015   10.49467763571893
H         2.35216358945183    2.16231735855118   10.57844272598713
H         3.28575617032718    0.67292436593004   10.43577247213035
C         5.51003935405578    1.75795157021228    2.18023994036591
C         2.25701364571402    0.60641712895575    6.43434744462626
C         4.51082787152895    6.98042797500646    9.18785685760609
H         3.43880994679010    6.87866440633822    9.11590241781130
B         8.54069907142885    2.17853368499901    7.40135328143608
H         9.23163215329132    3.09337463022809    7.66145560130272
B         7.78182680621628   -0.57927206982176    7.19135996735879
H         8.04019320926620   -1.71558655554949    7.34517547574108
B         7.73500499029501    0.14292492167867    5.57327217260058
H         7.84792723670117   -0.40813641970035    4.54656615452134
C         2.65653422016290    0.20809816639132    7.72434934539828
C         1.51832481642812    2.23283347748661    7.88924459293509
C         2.30733341028580    1.27099854326612    8.62716822383356
C         1.50791089068558    1.83592199875968    6.54877932999430
C         6.71734902624937    6.03277821932516    8.87517648079504
H         7.33773850350761    5.20334496458519    8.57334258506883
C         7.27421312062483    7.20249038462408    9.35282740052716
H         8.34796189571126    7.29145245839941    9.41907438989451
C         5.23734808616732    3.07414001441365    1.80321946181554
H         5.45356776961901    3.87814483999467    2.49168648409441
C         4.71462098716295    3.34350184012612    0.55364018654941
H         4.50945792462913    4.36653963067614    0.27133505675241
C         5.08635357185340    8.14199668013197    9.66352264731536
H         4.45604454127216    8.96315911184606    9.97017143316800
C         4.44788054749403    2.31363503401132   -0.33280211493103
H         4.03303705481267    2.52911914164353   -1.30652313419613
C         5.25837015981373    0.72540081511909    1.27407952014837
H         5.47685404292235   -0.28968795341412    1.57001972791997
C         6.46533738605074    8.25764891253683    9.74644222656766
H         6.90893001130870    9.16865010920065   10.11766127044345
C         4.72182237723625    1.00505172578154    0.03427835803392
H         4.51908982928300    0.19780641992568   -0.65528109145529
H         6.71695017638346    3.51107045137223    6.47993705254035

