95
CSD_code = SONPIW | q = 0 | S = 0 | Stoichiometry = C38H46O4P2PtS4 | MND = 6
Pt        2.66050970287653   11.89679840238590   25.25040954447309
S         1.33119332128854   10.60027854852800   23.68908725720484
S         2.63057644574790   13.69198053617437   23.61492862000657
S         2.68903902548243   10.10407869418360   26.88900152247972
S         3.99901198506454   13.19065818908725   26.81115308822527
P         4.67350532841418   11.22507827809376   24.31505680011135
P         0.65410634791721   12.57901723919438   26.19162764944577
O        -2.18642031412233    9.79208580719745   18.25787107767866
O         1.67032015106617   16.25072332700988   17.73333600845783
O         3.45826360677187    7.63602502452092   32.83925025146527
O         7.46919632915767   14.04267136698628   32.25484950591342
C         1.18040617657157   11.72090788008317   22.33600549919979
C         1.75196488320157   12.93985239362892   22.28411822176478
C         3.53842584415403   10.86795382802975   28.23189597664678
C         4.12077273334931   12.08200505607212   28.17734532650789
C         0.31972500100998   11.19566490073734   21.26905897902716
C         0.44019555157839    9.87981980356327   20.83852690856219
H         1.18562092405803    9.24269879939723   21.29131834993447
C        -0.37082039788676    9.37157992510078   19.83968769758740
H        -0.23792430566305    8.34623298866240   19.53135607099568
C        -1.33657305465038   10.17975841251027   19.25283767715570
C        -1.47975598652360   11.49617919134634   19.69643011377062
H        -2.24438088569993   12.10845948877737   19.24475026244814
C        -0.66940880330492   11.99360143560501   20.69022003426606
H        -0.80072321383862   13.01070478017273   21.02809843342976
C        -2.10632350724416    8.47044489715443   17.78576521434996
H        -1.12577103924235    8.25772117333408   17.34663101686257
H        -2.87058093553803    8.38546758153781   17.01458966957316
H        -2.31271993965733    7.74550523215221   18.58007605138841
C         2.01188727966821   13.24050698301375   19.82859886375756
H         2.24161461443857   12.18879972770020   19.73911690494016
C         1.99979492999936   14.02623877627964   18.69126690011069
H         2.21706799750677   13.56700450960276   17.73956387888039
C         1.71744207408568   15.38448145267960   18.78614661378446
C         1.46519433873473   15.93767222514779   20.04203299191485
H         1.25896553971823   16.99455526218312   20.10506087840738
C         1.47844347148527   15.14807048190570   21.16898046137217
H         1.28339003652034   15.58681895225846   22.13604932448393
C         1.73462875162145   13.77993055458413   21.08065588551538
C         1.89904885443066   15.74783079949370   16.44092455867854
H         2.90834446973240   15.33425585855832   16.34188638829275
H         1.79313741310905   16.59901775063047   15.76988864315131
H         1.16495209974265   14.98126078894873   16.17131079923943
C         4.97096450136527   12.61227422788376   29.24959556862945
C         4.86670714991122   13.93873931159333   29.65115340444123
H         4.13694721476772   14.57779901697157   29.17621121148259
C         5.67500040335674   14.45565196261836   30.64748734461737
H         5.55566401132332   15.48963617128536   30.93140197884981
C         6.62144025302118   13.64521799752589   31.26203934018640
C         6.74584494310133   12.31639164580459   30.85082751596075
H         7.49476310317093   11.70163960195883   31.32493184078460
C         5.93860894384815   11.81042198168532   29.85880679588347
H         6.05647490687462   10.78405035049474   29.54489491288773
C         7.41089973943336   15.37831648606624   32.68930665078346
H         7.63506329612028   16.07659182899379   31.87612309373072
H         8.17218440135868   15.47111948822961   33.46246770475755
H         6.43191676834767   15.62120844591695   33.11611233998237
C         3.51726209996980   10.04731202459250   29.44842123114167
C         3.21747642830870   10.61293597615885   30.68374393960116
H         3.00231944640102   11.66952744247510   30.74929349743821
C         3.18878573957565    9.84769945585717   31.83455609519086
H         2.95523741025135   10.32728060957847   32.77225643753591
C         3.45169447580970    8.48376272546959   31.77046264320489
C         3.72652203093643    7.90464325290321   30.53105273056136
H         3.91746136714955    6.84373265747483   30.49174379027884
C         3.75377037244146    8.67403876500551   29.39033790039678
H         3.96520805472159    8.21509276163878   28.43614787167504
C         3.20065489993079    8.16509769322182   34.11571971088843
H         3.93937386233938    8.92420970314085   34.39374942789629
H         3.27269964906957    7.32421617701919   34.80401248209517
H         2.19600827999962    8.59676190956659   34.17809578616101
C         5.67170824740199   10.11937598861577   25.36020070626853
H         5.10384806731397    9.21318796595245   25.56849647916205
H         5.89168013999969   10.62187985698563   26.30238183697895
H         6.60068607848697    9.87132797704590   24.84681458927725
C         4.53397454928523   10.32171262154609   22.74096663494775
H         5.52764094932065   10.05215872997849   22.38305280566138
H         4.03498003207072   10.95702696813529   22.00889107196906
H         3.93395409774753    9.42560837894319   22.89650465761515
C         5.82111456259326   12.58009807587805   23.92541773350197
H         6.74532348914554   12.16440632500641   23.52419506582426
H         6.02664717891012   13.14533981558975   24.83404702644554
H         5.35986116092753   13.24507526840157   23.19615527064154
C         0.80236127548813   13.46740117928394   27.77354240915973
H        -0.18876403908394   13.74532736995975   28.13197743996449
H         1.41225795046461   14.35808453492018   27.62533826182226
H         1.29327030480018   12.82130515794536   28.50161026412098
C        -0.50551579764900   11.23091389152421   26.56904443150095
H        -1.42402592216289   11.65127125359330   26.97840023831992
H        -0.04868099142043   10.55276641766524   27.28896008812083
H        -0.71991960624392   10.67847726478266   25.65460134151061
C        -0.33436123400583   13.70507291645593   25.15894398383655
H        -0.55903311846240   13.21608981471261   24.21082190827604
H         0.24204875063184   14.60830308652566   24.96158387044612
H        -1.26075272357937   13.95562216521437   25.67573271606186

