87
CSD_code = SONPES | q = 0 | S = 0 | Stoichiometry = C42H38O2P2PtS2 | MND = 4
Pt        8.80521383111200    1.71554450156046   21.38654556807833
S         7.73300994886695    2.79099870601337   23.10201906455846
S         7.78088858548159    3.15947159852685   19.94024993119364
P         9.86853075158994    0.21790253695681   22.76709642235513
P         9.85306508856589    0.58324047356479   19.68058965407898
O         3.37113813523938    6.89137725750089   25.76100620667873
O         4.29356634239533    8.42696510508126   18.23371898855185
C         6.76977253087370    4.02797949463774   22.30831033732493
C         6.81672828361512    4.20633956933163   20.97176747795455
C         5.90342646910184    4.77791227530748   23.21912796947569
C         6.37792371954564    5.20977660994183   24.45202397432111
H         7.40055436500681    4.99640543395078   24.72838433546860
C         5.57214405373780    5.91642593623775   25.32699673744914
H         5.98491532146635    6.24028400682294   26.27011339709483
C         4.25693150902669    6.19818043656492   24.98207032316945
C         3.76503132096962    5.74747357223273   23.75590058000569
H         2.73682297575420    5.95954356003347   23.50760535533013
C         4.57274878105517    5.04621466684889   22.89104214803167
H         4.17460538103233    4.69460957014777   21.95109992343503
C         3.81380784341249    7.37621472804202   27.00243326674417
H         4.11922293758477    6.56200302529387   27.66876577027842
H         2.96159425334820    7.89577771612378   27.43857531263224
H         4.64501110119520    8.08048486155083   26.88775968706319
C         6.14342140827388    5.28780359946806   20.25073401765956
C         5.52900179488597    5.04672839472644   19.02750278381001
H         5.53770545439010    4.04555489373214   18.62106479821914
C         4.90060117193572    6.05905262570765   18.32431295039537
H         4.42996940971790    5.82484718393097   17.38171861019116
C         4.88370476667446    7.34964282707851   18.83633317169980
C         5.51557326200600    7.60489280355700   20.05454973515149
H         5.50812153651017    8.61492278922423   20.43347808944374
C         6.13842543193985    6.59300006549645   20.74756601803614
H         6.63560903194553    6.81004971306205   21.68095044001189
C         3.65357299441067    8.23152880934760   16.99915497693304
H         4.35245023711837    7.87751785486752   16.23338230625648
H         3.26704304031428    9.20738096235827   16.70805318313975
H         2.82088963469831    7.52459093022586   17.08305296533049
C         8.91133609092896   -0.79913800034650   23.92960059293851
C         7.52515813453222   -0.77460881374295   23.84588397202197
H         7.05698099289178   -0.11721168324710   23.12205650288909
C         6.76632138022085   -1.55681886021558   24.69747680273459
H         5.68847597902588   -1.53174977687686   24.63779744793069
C         7.39208752848361   -2.36543116896989   25.63176459173489
H         6.80184275296570   -2.97514613091376   26.29992396018078
C         8.77578908613834   -2.38877282365373   25.71955404834285
H         9.25955286194970   -3.01571245508650   26.45441862776266
C         9.53854585959997   -1.60695157713056   24.87251360221290
H        10.61763681624263   -1.61103808001953   24.94616475919877
C        11.19249671215950    0.84688666553683   23.84064056945347
C        10.76627879242556    1.68619217857749   24.86982412590084
H         9.70803107258951    1.89149061541204   24.96997813994539
C        11.68399194944210    2.25086963243310   25.73238155378996
H        11.34892196553489    2.89738161571857   26.52968638270967
C        13.03697941195467    1.99276685144824   25.56894498905901
H        13.75756726724270    2.43613277929113   26.24008297943999
C        13.46566665272647    1.17329355155958   24.53913799496852
H        14.52028933868803    0.97818615663321   24.40712293332562
C        12.54974283318588    0.60178211330711   23.67190169244327
H        12.90284133338874   -0.03362586543744   22.87234214337673
C         8.76514923237463   -0.71071319525887   19.00744233738645
C         7.51425576840349   -0.88136383843246   19.58748663747885
H         7.22023392768850   -0.20994823698802   20.39427032705434
C         6.66400042711826   -1.87069763426775   19.12895176604076
H         5.69128035848693   -2.00126171307260   19.57930434764366
C         7.06276081026040   -2.68933054690369   18.08479125994752
H         6.40069877295528   -3.46129708666947   17.72122139164825
C         8.30685052089267   -2.51601580775073   17.49707366661188
H         8.60955724171925   -3.15173559503639   16.67777383596377
C         9.15998758007767   -1.52889151886037   17.95428042016592
H        10.12657396463996   -1.38160710904094   17.49112734730297
C        10.55893052560640    1.30079324566775   18.17476881134098
C        11.92209491918961    1.42966897589978   17.93530281907129
H        12.64272235314185    1.05606420739896   18.64802241889701
C        12.36113722577869    2.04140241396200   16.77380586071495
H        13.42104975655142    2.13536312334865   16.58651031111271
C        11.44962733426758    2.53759216869777   15.85728201358939
H        11.79951782880340    3.01783058593886   14.95551561286978
C        10.08921679174359    2.42724465673773   16.10204044958268
H         9.37766312460306    2.82506111626494   15.39407366719330
C         9.64411816621603    1.81441721412802   17.25613398647047
H         8.58669687847062    1.73484496317467   17.46930697056187
C        10.65022091908078   -1.08212496854774   21.69845901848909
H        11.41529199204709   -1.63265283030113   22.25352924962020
H         9.84854287135604   -1.78392594518076   21.43911622379165
C        11.20227565082415   -0.44031799481265   20.43058700578034
H        11.55293367077844   -1.19298837507968   19.71709952258182
H        12.02743386958511    0.23417370687205   20.67866783195420

