81
CSD_code = SONQET | q = 0 | S = 0 | Stoichiometry = C40H36P2PdS2 | MND = 4
Pd        1.05024191720029    2.21201080158048   11.82361519780846
S         1.65534660477059    1.33432795471901    9.80542057542358
S         2.52783167671578    3.91626518331404   11.43300537379781
P        -0.02593861265617    0.25803802217018   12.27551655396107
P         0.22240700664677    3.46380355619189   13.54643417539740
C         2.79359507940580    2.49719576456507    9.14129500315502
C         3.12616152208747    3.60691468482335    9.80992256987664
C         3.32633361658134    2.15421547874581    7.78219915839390
H         2.97878588995643    2.87531132598626    7.04014833306075
H         2.98344649521553    1.16364647525358    7.49166465980227
H         4.41676924704887    2.16666416748681    7.78197630699503
C         4.06832602313157    4.64509690024380    9.27775984776920
H         5.08056602274368    4.24340893340425    9.20145080884293
H         4.08438660327479    5.50271443396429    9.94684806068485
H         3.75784110847084    4.97333454324153    8.28518166503465
C         0.44341890249872   -1.25831840952389   11.38929775421393
C         1.36064899092461   -2.17696957305880   11.88613163817404
H         1.79915426463104   -2.03365839050562   12.86430634650958
C         1.71241774810527   -3.27656639603830   11.12332687047934
H         2.42417194125568   -3.99087139646931   11.51163024112713
C         1.16287832304567   -3.45979571434746    9.86567943789827
H         1.44664958002513   -4.31673686972697    9.27254889132160
C         0.25544939556491   -2.53951426259265    9.36431259409732
H        -0.16591672839814   -2.67588579675820    8.37917442057626
C        -0.10369943902222   -1.44179801222837   10.12067419887395
H        -0.79839444302936   -0.70796582775652    9.73290345735177
C        -1.83710063649305    0.13271511621510   12.21088569812482
C        -2.53076549674982    1.24253524117904   11.74106978225112
H        -1.96547966074664    2.12393052192064   11.44404967772594
C        -3.90989957429570    1.21182712800701   11.63984830309689
H        -4.44540054945999    2.07757268430563   11.27784959424975
C        -4.59814856444698    0.06507247723166   12.00121141210405
H        -5.67535555933136    0.03678348302286   11.92751070752233
C        -3.90713757512057   -1.05507373683822   12.43842111348666
H        -4.44788456575401   -1.95400912745884   12.69692991100111
C        -2.52788910756196   -1.03023385838131   12.53535265629271
H        -1.98313420763909   -1.91193521223780   12.84403596785008
C         0.50853661451437   -0.08118358761541   13.98326355084692
C         1.83641888210693    0.27644190760204   14.23309297466074
H         2.43957512344578    0.68974101938902   13.40904728139545
C         2.37963215298264    0.10210166418563   15.49085411086125
H         3.40780834824764    0.37339987071342   15.68262007157343
C         1.59729032457464   -0.41911700493709   16.51100491461953
H         2.01697930249011   -0.55108102060936   17.49731331149439
C         0.27887310450876   -0.76320030100413   16.26924822882154
H        -0.32997317572671   -1.16138140104161   17.06766946061719
C        -0.27003276619119   -0.59756228107877   15.00817236573363
H        -1.30437813535224   -0.85236741643156   14.83124616716419
C        -1.04227634465114    4.52256754003771   12.77233269434076
C        -1.05437805638151    4.59226345631121   11.37946001463985
H        -0.31794925505083    4.01499168914508   10.79811840131898
C        -1.98452920974620    5.38543492317835   10.73165233134105
H        -1.98960601224294    5.43929930790604    9.65290594690158
C        -2.90992131172259    6.10789910027616   11.46770210616217
H        -3.63678427432557    6.72715509800449   10.96277910607589
C        -2.90791622932591    6.03435550902852   12.85177592658436
H        -3.63361382723986    6.59453272184910   13.42367806092766
C        -1.97934260541545    5.24512168055392   13.50626155531246
H        -1.98540704363352    5.17691522717071   14.58593851183322
C         1.41625421463349    4.62217844424680   14.28367726044788
C         1.14886677836728    5.95992206786247   14.54035102819438
H         0.18684981170696    6.38163009086235   14.28708692156813
C         2.12891547458017    6.75883448177456   15.10345056268977
H         1.92260966918091    7.80170840223328   15.29656451418525
C         3.37187649378878    6.23131330105499   15.41091063439151
H         4.13317507335641    6.86261596726690   15.84534384450537
C         3.64485585613889    4.89856895537570   15.14751529528353
H         4.61957268781439    4.49040916295018   15.37181376761614
C         2.67246794133675    4.09707240041155   14.58191350638428
H         2.87978883054205    3.05956428560392   14.33778591362816
C        -0.63370399158632    2.82689321185367   15.02592164401639
C         0.01825053169251    2.73520484158361   16.25117413610842
H         1.03022916891540    3.10162806961949   16.34999968623463
C        -0.62835670333544    2.18616014279702   17.34327602187872
H        -0.11739796728603    2.12754247832362   18.29320718603956
C        -1.92461845745291    1.71444090438735   17.22311965530596
H        -2.42739804266169    1.28734827051755   18.07825987140475
C        -2.57539479579453    1.79266504573244   16.00241828078580
H        -3.58613883504755    1.42430729616797   15.90046645541487
C        -1.93433987494249    2.34284106688329   14.90949025520575
H        -2.44525270871409    2.40727111666103   13.95892750112354

