101
CSD_code = SONTIA | q = 0 | S = 0 | Stoichiometry = C37H55AuN4S2Si2 | MND = 4
C         5.89787987523756   12.98318222110995   14.41584522370012
C         6.25687510936452   12.22243404452334   13.21695748487138
C         6.25574928208182   10.83039509803815   13.24065947812822
H         6.00361180202091   10.33962926793943   14.16609367784230
C         6.57369116366816   10.13540803425326   12.08698092676617
H         6.57194026656229    9.05612648227222   12.08116731588743
C         6.89442980013745   10.84183671838937   10.94129954145915
H         7.14720441351651   10.36033731089614   10.01112624549727
C         6.89586570094807   12.23380342551270   10.97934141434527
C         7.26131014265445   13.00576955120346    9.78994970713149
C         5.39214718941444   12.91837225354436   16.71246074973175
C         6.39066988937388   13.20137200375882   17.65020826164675
C         6.01742123800553   13.69591119048937   18.88992028645643
H         6.77563687115615   13.94200901645144   19.61711227175363
C         4.68571577926877   13.87932320340758   19.20612212424284
H         4.40744349906369   14.25795755907362   20.17858769465268
C         3.70640668033517   13.58188826285583   18.27561381468772
H         2.67131681683832   13.72956114355706   18.53857104653818
C         4.03615100602617   13.11057957005217   17.01594658171895
C         7.84454530453616   13.02862523409688   17.27502493796841
H         7.88534360504143   12.39553798495520   16.38073243983675
C         8.44806692871485   14.39348026424541   16.93100380825359
H         7.87284332818018   14.87609091701033   16.14368489373333
H         9.47717375806980   14.28268435868879   16.59433683674665
H         8.43629502096746   15.04190727351511   17.80416601540254
C         8.65281422148479   12.34038971894022   18.37509024772319
H         8.75368287884059   12.97910556367859   19.24847319390197
H         9.65183787137490   12.10929437250543   18.01077426253888
H         8.17088702190211   11.41321007838276   18.67725350267169
C         2.99210782058489   12.75127147477738   15.98277317930860
H         3.37350824002580   13.05678602069534   15.00190296632747
C         1.65309827355385   13.45343540245616   16.19245032855266
H         1.00948017601364   13.27412457923633   15.33339569364293
H         1.79653115490316   14.52632708273782   16.29585995366095
H         1.14387429801216   13.07565321349248   17.07591223455077
C         2.80199477250020   11.23091521446420   15.97058523268727
H         3.75103200397586   10.73508025185927   15.78006063619885
H         2.09320321345066   10.94119888950712   15.19736856219628
H         2.42393334421965   10.89432506980503   16.93375849031689
C         7.79376430978833   12.95182159841173    7.49642413338433
C         6.80772576310588   13.17264535593974    6.52822551470663
C         7.18804999717342   13.67019726134765    5.29235087355291
H         6.43888012350032   13.86956873003390    4.54209374182080
C         8.51763163805427   13.91467545637368    5.00877207855946
H         8.80289239737009   14.29509519784455    4.03902648114378
C         9.48547291999078   13.67490971878714    5.96734519606197
H        10.51886195896958   13.86756705912423    5.72793486251969
C         9.14674265297866   13.20379138014458    7.22492654425260
C         5.35699377224641   12.93565450848163    6.87902818446531
H         5.33265791608733   12.26005861881439    7.74264752244247
C         4.70996135978851   14.26348236623272    7.28462838117728
H         5.26316119216993   14.72396497101501    8.10047413414433
H         3.68142458719487   14.10614682133413    7.60407311296675
H         4.71127213013785   14.95407616333796    6.44420281442995
C         4.57424628445344   12.27847435893095    5.74266330078032
H         3.58745235851878   11.98521932687868    6.09534959259590
H         5.09258913158026   11.39123107937573    5.38595031169730
H         4.44146539736344   12.96237743207741    4.90860905436719
C        10.18237641462366   12.89829331574626    8.28353195654192
H         9.76782315599519   13.19359913203697    9.25363106865672
C        11.49368735162980   13.65705456536522    8.09706471810141
H        12.03896149448774   13.29529086757021    7.22852469097446
H        12.12498573333089   13.51321058418872    8.97177850157849
H        11.30530528881113   14.72167141355114    7.98124032044508
C        10.43844653701697   11.38781439370809    8.31179763727107
H        10.84858787837505   11.06053980435146    7.35856913622712
H         9.50871808229156   10.85203373501628    8.48957367117851
H        11.14479123235634   11.13540086247429    9.10018430785097
C         9.27371476642830   16.35652204331117   13.15916484699206
H         8.97465736669799   15.51877117959974   13.78366988074013
H        10.14800526681019   16.80615758402389   13.61864975018874
H         9.57551496214070   15.96421369381305   12.19243259181053
C         7.29979735076487   18.17686377193503   14.71752103616964
H         6.65712234653395   19.04938942047063   14.67095633853751
H         8.14854825498229   18.42405664555007   15.34771998580276
H         6.74084023110842   17.38595697072547   15.20896603436767
C         8.50278092412033   19.10743047965303   11.96255513881736
H         8.82504717297246   18.79337681143909   10.97594535820812
H         9.34815601123901   19.56962288599924   12.46120071722211
H         7.73737498666299   19.86415859696214   11.83749471275783
C         3.86565551861693   16.36848635545294   11.08156520968959
H         4.16115851956870   15.54070449248685   10.44216987471486
H         2.98853148967655   16.82488551334173   10.63428472064401
H         3.56961607283489   15.96099738821672   12.04381084269256
C         4.64153874552522   19.10681731641008   12.30575931564798
H         4.32420279277324   18.78346378872297   13.29092279853232
H         3.79358784644683   19.57310353288306   11.81543048328211
H         5.40707469264092   19.86281970844269   12.43418510025347
C         5.83735148026792   18.20232942289711    9.53857355841703
H         6.50170267615985   19.05794534465664    9.59364389635797
H         4.98878804793217   18.48098390753363    8.92137493188394
H         6.37184950639881   17.40652440315773    9.02814312612382
N         6.57582205846468   12.89030413037098   12.10139475300714
N         5.75305657898802   12.34488194932767   15.49926667431123
N         7.42078024893875   12.37567016210382    8.70370014053296
N         6.57067671399153   16.84345941565960   12.12083045348205
Si        7.86532199342264   17.63234894611613   12.97931116479008
Si        5.27501453200401   17.64155230567427   11.27248408376342
S         5.68556880318883   14.72859119022239   14.25143173234496
S         7.45570062305603   14.75261964639373    9.96886916716839
Au        6.57179259753402   14.89508559554572   12.11197847356966

