73
CSD_code = SONVUO | q = 0 | S = 0 | Stoichiometry = C34H33FeNOP2S | MND = 6
C         9.42871856711617    6.23556587749463   12.85699056260018
C         8.17922634602408    5.84274695780895   13.34154206835325
C         7.95167889219857    5.67007701899457   14.68899976251758
C         8.98043893997613    5.91120130380424   15.58668319917246
C        10.22413366623087    6.27601877922522   15.11294794600234
C        10.49579971830799    6.41528955048309   13.74823365570207
C        12.13344236129539    7.64763852784870   12.27443500577548
C        11.86389260613316    6.79380189939440   13.35768739200952
C        12.91634523036765    6.32900632530958   14.14708699107663
C        14.21534981359940    6.77512749554371   13.96442038665109
C        14.47731431059712    7.73606501835538   13.01299945638803
C        13.44631023797865    8.15334998478871   12.17032150604342
C        13.60528332100568    9.16606827151742   11.14730994086212
C        14.75850166729305    9.91997850015923   10.92904377297904
C        14.76860619021524   10.89515572479205    9.95539249949718
C        13.61153453121577   11.10498293586874    9.21619505569147
C        12.50970972891328   10.32028659729561    9.47896895614376
C        10.12743612499574    8.54664478553094    9.30939063756820
C        11.29568218742159    5.70826964497086    8.37037053411821
C        12.51335579963669    4.95629915792641   10.75341967998307
C        13.71367274370210    6.95047525838262    9.11058801484537
C        14.93620026642878    6.60097356008098    9.67086828636892
C        16.11383697283727    7.09238106485039    9.13471270199750
C        16.08359934231292    7.94195422932689    8.04268115484544
C        14.86794786795352    8.30253765115430    7.48318540921714
C        13.69245725274332    7.81600981162600    8.01958732785559
C         8.10553522646309    9.39937254763203   11.93846586999456
C        10.18767928324184    9.69084843203968   13.77715180144573
C        10.22900783198875   11.22552052901169   11.41841192390574
C        11.33409983703178   11.92201069433119   11.89919096787978
C        11.64467035277524   13.17461190506955   11.40396802387869
C        10.86193710802207   13.74260493510126   10.41258871252540
C         9.77115810025878   13.04917904599694    9.91502502848649
C         9.46063282614301   11.79486253430573   10.40839026359649
N        12.49037519561308    9.37097185956046   10.41274916137250
O         9.49603334587833    8.79301285180026    8.37966755726245
P        12.10256258518396    6.47543361796717    9.82519551803286
P         9.93173655651148    9.51386666164791   11.96924515807287
S         9.52822942361712    6.44805640697000   11.12123381215904
Fe       11.04132972039241    8.13212575116585   10.74287532052456
H         7.38879127717181    5.68235004707391   12.62336793673517
H         6.97565903220607    5.36898109646229   15.04078424982995
H         8.81378543591335    5.81701717879725   16.64994545601568
H        11.01017641070504    6.48500621747946   15.82491561520479
H        12.72494314473124    5.58366629946062   14.90630760620331
H        15.01122651335809    6.38613554429482   14.58379972195152
H        15.47736671304497    8.12956510737100   12.90261004456614
H        15.63829682187840    9.73651001929546   11.52436700139767
H        15.65480695096461   11.48429430356911    9.77421750733499
H        13.56456098863500   11.86124049700426    8.44953886912520
H        11.59577432744940   10.45965140819001    8.92060739489087
H        11.05221215501107    6.46690547930325    7.62938308186269
H        10.36911829952682    5.24713145591217    8.71393750821496
H        11.95026347009889    4.95590853425450    7.92846678103529
H        11.57425198492202    4.50307408297358   11.07331847073127
H        13.11045905795098    5.18205112135683   11.63448278799838
H        13.05130063540840    4.27294362888535   10.09400698297957
H        14.97353363493122    5.95014788259180   10.53159332909179
H        17.06033906920297    6.81379478027830    9.57556906850491
H        17.00453630617538    8.32681024911608    7.62985829952744
H        14.83943476065643    8.97048207396413    6.63440017346448
H        12.73904991309253    8.11227342020263    7.60228011669459
H         7.65950446259210   10.29674244871816   12.36953169163301
H         7.81681843562043    8.52272161170927   12.51937614249901
H         7.76277218417656    9.25387804805990   10.91520536339358
H         9.71391139633228   10.61002482378536   14.12481134759772
H        11.25108824734894    9.70429092604384   14.00928720472588
H         9.73900818908679    8.83208546316253   14.27522182816710
H        11.95790811874717   11.47585191395257   12.66124021554789
H        12.50300885596667   13.70725733292238   11.78774879150368
H        11.10484055337727   14.72099186265992   10.02479390890247
H         9.16359971608339   13.48587872323291    9.13547435513482
H         8.61889085803598   11.25195271277272   10.00393012413120

