89
CSD_code = SONZAY | q = 0 | S = 0 | Stoichiometry = C36H47N3NiO2 | MND = 4
C         6.92210334651080   10.04905135728120    3.93694101139376
C         7.36935807489960    8.24986945213668    5.15313436380505
H         7.89257967373267    7.59645339442973    5.81741437402440
C         6.22052804658477    8.01564722635429    4.47525840150328
H         5.59707162460807    7.14825275372523    4.50636373485769
C         8.96923872923389   10.11898803383459    5.31743499768325
C         9.40352538857075   11.33368248329703    4.73454771283552
C        10.62159505226038   11.89155282100510    5.21280254731192
C        11.29223552615057   11.26253969003843    6.24187041615430
H        12.20648053530738   11.70028493140238    6.59671422283483
C        10.83479381806390   10.09777590526394    6.85348565050656
C         9.66684019933188    9.53967759717688    6.36854266841635
H         9.28367061532270    8.64287137407327    6.82641524994015
C        11.14989658228141   13.17588948423121    4.58189121272668
C        11.36541101787387   12.94540480770824    3.07984050247454
H        12.10747058483962   12.16478340781838    2.92358527537101
H        11.71586291345835   13.85961461015430    2.60403929767391
H        10.43607796579308   12.64148103058718    2.61043775336318
C        10.12873937503549   14.30184994516623    4.79723838529656
H         9.17068646866929   14.03183606270212    4.36504345295260
H        10.47626874807532   15.22110273130688    4.32873221165970
H         9.99083278852046   14.48379580125106    5.86131229835047
C        12.48476243858187   13.63348983204119    5.17900135097442
H        12.38872065524185   13.85970052454674    6.23850723757121
H        12.80761469741441   14.54124287392017    4.67222258399607
H        13.25775161124390   12.88082404819155    5.04108843775000
C        11.55428874513869    9.43323078122158    8.01872433298548
C        12.83776902440006   10.16682697934276    8.41694780108897
H        13.54623572211509   10.19063127669783    7.59233259295850
H        13.30863914996172    9.64761410132566    9.24970193992606
H        12.62398311506915   11.18459049005646    8.73443404832949
C        11.93180603573022    7.99604745001199    7.63203051597314
H        11.05124286018279    7.39858129307316    7.41276614115525
H        12.47192627763864    7.51643042799761    8.44598558996906
H        12.56816141337288    8.00053713445633    6.74966669214611
C        10.62116262419847    9.41402500158410    9.23812172738567
H        10.33514800419860   10.42893819065209    9.50587945547401
H        11.12249746162307    8.95916003139775   10.09022354049199
H         9.71521808225190    8.84927629829710    9.03573313923778
C         4.82844992784582    9.27782190240089    2.87768092108802
C         4.56188742253292   10.55036757858123    2.32209090600385
C         3.38944746315883   10.68597842225175    1.52420720541190
C         2.60837713025763    9.57589747729999    1.29350548609396
H         1.72866047070638    9.68195400897004    0.68297036703258
C         2.90266270246504    8.30659864223230    1.79599805295440
C         4.02048696681403    8.18121593455196    2.59321285008955
H         4.28570340015494    7.21903756320020    2.99338748499546
C         3.03814265400813   12.05110284761009    0.94261885909795
C         2.87144172348836   13.05699046944743    2.08975164825136
H         2.05665473042502   12.74906351396644    2.74226614723977
H         2.64682065948209   14.04617049767311    1.69475989024815
H         3.78349544714979   13.11298703136597    2.67409788211019
C         4.16575631349538   12.50700887238552    0.00598848533050
H         5.10748103895778   12.55544017847729    0.54303641174050
H         3.94396229317954   13.49282952631620   -0.39927734993415
H         4.27250825910184   11.80664438175105   -0.82013899121586
C         1.73456975366953   12.04150628207556    0.13749213239112
H         1.80442658489595   11.37830483179062   -0.72185210165812
H         1.53771611109904   13.04631905753781   -0.23210344323455
H         0.89122694906800   11.74165156805885    0.75565384784237
C         1.99622508750809    7.13628944877559    1.44529161723952
C         1.97782959598775    6.95523927472711   -0.07913388560062
H         2.98510100020822    6.77045432364300   -0.44655992662856
H         1.59221647898674    7.84025936248091   -0.57708297890835
H         1.34912055422238    6.10964811238582   -0.35121956844364
C         0.57590510557797    7.42680074420976    1.95013448253310
H        -0.08316225542205    6.59133471688740    1.72220488827871
H         0.16634684829244    8.31928941804764    1.48585409585263
H         0.58420591139094    7.57736658766503    3.02764238205833
C         2.46185604466107    5.81918569030618    2.07286116123569
H         1.78070545102195    5.02014353536252    1.78647744241892
H         2.46465886064934    5.88271390779454    3.15879564101856
H         3.45710638324257    5.55068861814532    1.72566418265084
C         7.92817182346174   13.73320590831337    1.28331341796573
H         8.46310653723610   12.87442745081590    0.89682216678722
C         8.05701795561609   14.97508804811781    0.68408323681386
H         8.69596084565202   15.09653142957205   -0.17642084759282
C         7.35336348123617   16.04634705627824    1.20964889549545
H         7.43034353078035   17.02871820318434    0.76755879277168
C         6.54849000534746   15.82754325942862    2.31566116426032
H         5.98162366211446   16.63062715687794    2.75972857210211
C         6.48082480386204   14.55172820820204    2.85020997760494
H         5.86220657362497   14.34657568402745    3.71522692255579
N         7.79892959161732    9.50440247512584    4.82305036551680
N         5.94761653055641    9.12413121144162    3.72379095005292
N         7.15660027377897   13.52444501512254    2.34537938812438
O         8.73273481584527   11.93408300625842    3.79473241786412
O         5.33959877643242   11.57481235646078    2.51819390716565
Ni        7.03272273105316   11.70627756665373    3.17833157837477

