87
CSD_code = SOPBEG | q = -1 | S = 0 | Stoichiometry = C30H52CoN2Si2(1-) | MND = 2
Co       10.55738526495136    7.26141708705405   -0.00000816514778
Si       11.32889303317891    6.36235568725457    2.83730869988426
C         9.95808918759648    8.72429606970292    2.27754944488780
N        10.64024833517653    7.59110733545723    1.90580478437515
C        10.62883625066754    9.93224677220284    2.56469976978176
C         9.90262208118862   11.07106440678558    2.86555851015209
H        10.42145436695823   11.99812218879610    3.07451442963689
C         8.52122375626218   11.05205558216334    2.89464762621926
H         7.96582736326524   11.95228952684912    3.12487924949744
C         7.85186381294018    9.87096863510938    2.62073749592257
H         6.77112566841684    9.87067803054755    2.64288323720563
C         8.54131341738060    8.71028214197413    2.32714145384015
C        12.13566035903814    9.98650094072204    2.49690158502860
H        12.48507183971391    8.97219876139475    2.29439353616248
C        12.74179290432206   10.44893434030015    3.82249069883382
H        12.46843031179674   11.47949084007766    4.04268152864823
H        13.82876812300922   10.38465455016851    3.78595448826467
H        12.38482569016754    9.81968293488538    4.63523051005344
C        12.58912238373833   10.88300270517863    1.34303157107249
H        12.17681150844003   10.51089181265391    0.40860621368804
H        13.67629771909859   10.88897430600886    1.26874446030574
H        12.24804341369373   11.90702423081878    1.48662107304594
C         7.83616406394854    7.40937190322798    2.02493480092386
H         8.43721448749672    6.61441665777835    2.47791713076016
C         7.81224125012062    7.16663521058577    0.51388466809850
H         7.32450873624991    7.99302402159047    0.00037250983275
H         7.28930496070118    6.24135439686910    0.27807525425724
H         8.85431503097392    7.08266136478408    0.12992089095736
C         6.42032797686076    7.32169825317058    2.59449700674174
H         6.41343347604566    7.58057281700161    3.65157021907352
H         6.04337978326090    6.30530254005946    2.48731191013560
H         5.74000955914517    7.98714038467651    2.06602571427505
C        10.39029440464556    6.02654393214926    4.48041115735046
H        10.07650067516579    6.96978044896893    4.91719894269715
H        11.01354634068203    5.51675327809868    5.20902201037046
H         9.49831894600655    5.42633786610012    4.33089452782141
C        13.16044513103942    6.56572148610323    3.41396830654601
H        13.81413699447035    6.82185692817972    2.58564797932074
H        13.53834238065823    5.64571627417921    3.85391923785358
H        13.25721935646059    7.34765958372631    4.16193667191217
C        11.28268150959510    4.84373075666377    1.66894794838147
H        10.51898274717722    4.12606500607470    1.95211919080105
H        12.23162227080812    4.31967424554850    1.63014802693376
H        11.05440624975148    5.18655720644816    0.65226285505014
Si        9.78588980454687    8.16076022272084   -2.83733996755168
C        11.15667158662421    5.79875979954247   -2.27766641261073
N        10.47451660455157    6.93197061081761   -1.90588619067349
C        10.48585726401524    4.59084797159827   -2.56492373168354
C        11.21199792852118    3.45195537213534   -2.86570051143328
H        10.69310804895539    2.52486399868384   -3.07439778872675
C        12.59340837394929    3.47078507492453   -2.89446763116000
H        13.14873697307651    2.57052298234529   -3.12475059696784
C        13.26285545897901    4.65174623924269   -2.62024918469169
H        14.34357539779136    4.65207619072289   -2.64290473085803
C        12.57348011011138    5.81253924017334   -2.32680959949063
C         8.97903891481749    4.53660574652551   -2.49690148898977
H         8.62973005518568    5.55091687642803   -2.29427258233548
C         8.37306943268823    4.07448919708307   -3.82266629218308
H         8.64625124820862    3.04390871945213   -4.04300654689189
H         7.28611604932718    4.13893614716181   -3.78612251463073
H         8.73011750330041    4.70382988995633   -4.63532154393306
C         8.52532556429118    3.63998644990870   -1.34319588602184
H         8.93765895124714    4.01182615627915   -0.40868061173171
H         7.43813841697232    3.63407581111474   -1.26893822938960
H         8.86630317652302    2.61597481358784   -1.48699676546004
C        13.27874776194511    7.11342599891169   -2.02480299088410
H        12.67779328392477    7.90844109943206   -2.47783744524352
C        13.30255928961923    7.35593705217955   -0.51371284380976
H        13.79024078653121    6.52951023586295   -0.00019393019306
H        13.82558242701940    8.28114864561080   -0.27789898795229
H        12.26047180317104    7.44002356027961   -0.12977179110637
C        14.69463485256238    7.20092302845381   -2.59428276481928
H        14.70158390449274    6.94199035756520   -3.65133842312612
H        15.07166547208009    8.21728843753317   -2.48711863249033
H        15.37486993535447    6.53545377465754   -2.06573506240931
C        10.72462120758729    8.49619344199066   -4.48044235662816
H        11.03821916690929    7.55294560862240   -4.91741215504143
H        10.10111505799324    9.00610422407910   -5.20870989455319
H        11.61667150230456    9.09643698245358   -4.33109852202265
C         7.95441105330894    7.95695281911369   -3.41393318913785
H         7.30057651902161    7.70031338883277   -2.58604712311736
H         7.57629562164605    8.87693663088524   -3.85347719011961
H         7.85772855245530    7.17547962746326   -4.16220983819945
C         9.83255628321580    9.67936616415143   -1.66899607897771
H        10.59660219003817   10.39677523205557   -1.95222452890500
H         8.88357629744745   10.20355574793827   -1.63082185792609
H        10.06032704541113    9.33670698342418   -0.65209474737378

