62
CSD_code = SOPDUY | q = 0 | S = 0 | Stoichiometry = C27H22F6NO3PPdS | MND = 4
C         3.93573809814018   12.85372265163015    1.65549774099392
H         4.18206501722009   12.96865135931643    0.59506970722506
H         3.27095228896648   13.67627766605631    1.94279402473269
H         3.38332747809410   11.91908940140071    1.77799876377928
C         6.18153101597321   15.78653948316428    2.16764841370945
H         5.26911762887061   15.97189641191520    2.73001308750740
C         7.14040102430871   16.77136266531301    2.00080654454490
H         6.99748974098378   17.74656546105002    2.43913960376675
C         8.28757068715738   16.47364603424402    1.28196362410713
H         9.06013140441446   17.21537500551717    1.14492845483813
C         8.42879679281345   15.20034976651394    0.75177386039231
H         9.31117441896575   14.92458294146017    0.19598577036286
C         7.42180311399784   14.27429426178222    0.96352630830545
H         7.49254741941842   13.26128951378361    0.56932755051790
C         6.95739202854082   12.22772949337855    6.06584329475063
C         7.41967123561465   12.58002668499689    7.31276832864447
H         8.40676696385678   13.00711891879401    7.39504268304432
C         6.61217927039427   12.37302552348446    8.42004484421166
H         6.96870063733711   12.64080832791342    9.40384479639399
C         5.34036397118819   11.83213522071365    8.27315666755069
C         4.88798852066406   11.48650291314642    7.00399936635560
H         3.89794789964910   11.06553384644626    6.90287668766004
C         5.70189425435456   11.66321665061138    5.88889970634117
C         4.43732429217178   11.63499683079190    9.45108767432994
H         4.96934647120880   11.80160959398083   10.38354070727347
H         4.02777090155574   10.62701276479218    9.45178419551500
H         3.60413471481180   12.33465885083077    9.39446703018513
C         3.33017954662402   11.20226559054409    4.44018799063321
C         2.68766506128622   10.02845091789076    4.04920238297176
H         3.28264305262553    9.21377843770536    3.66511691061444
C         1.31742363982243    9.87118901215318    4.14022464983382
H         0.86336068764591    8.94076681484483    3.83455206330864
C         0.53348512502924   10.90357401390850    4.62320818163643
H        -0.53582018174177   10.79161249774706    4.70867357085433
C         1.13518005607038   12.09316829382490    4.98631743872078
H         0.53361160392802   12.91362205286463    5.34817127036891
C         2.51438724994638   12.25210771722600    4.88190050109585
C         3.01040960115065   13.60748673189830    5.31283413933891
C         5.60306332873085    9.72529985980179    3.48457673914422
C         5.78481562709962    9.76245357632169    2.10000597833189
H         5.63450061463248   10.71412835820709    1.58842532878064
C         6.19368866997135    8.64732575153687    1.39651790122466
H         6.32882353806776    8.70408855233714    0.32681743545796
C         6.45047451974758    7.46117758988633    2.06592570111589
H         6.78535407492769    6.58768423606301    1.52838594244737
C         6.29360192977636    7.40537865148568    3.43647370255603
H         6.50475889486997    6.49058072815050    3.96884079198992
C         5.86717354888343    8.52597803790836    4.14486687930633
C         5.71425362541963    8.39874261653525    5.63171109717827
F         4.23792877355046   13.97657644344527    4.88215147107406
F         2.19289435896215   14.58712159266586    4.88275370576203
F         3.04170960682362   13.73273582524718    6.65547972310916
F         6.65968053489608    9.04472496782131    6.32989240738405
F         4.52590013372610    8.86576075220891    6.06572527062903
F         5.76121945032460    7.12280967338741    6.05405400019028
N         6.31960447966687   14.56684251706285    1.65227337054628
O         7.34654856649944   13.79815072950703    4.05207624700333
O         9.27845230406319   12.56875425410848    4.85282758830149
O         7.45599504359310   11.39197612599830    3.71438554017096
P         5.16442101776263   11.37744719018137    4.17061284354021
Pd        5.61805884577545   13.06789859313156    2.78547396395252
S         7.87262577918438   12.53102305333098    4.56912783439366

