68
CSD_code = SOPDOS | q = 0 | S = 0 | Stoichiometry = C29H26F6NO3PPdS | MND = 4
C         6.96701383863438   12.14849113433857   10.97274035240114
C         5.90580004354338   12.72206572234045   10.28206810229358
H         5.23799844166372   13.40089646499078   10.78851565876407
C         5.71078705435884   12.39538448610101    8.95182799511379
H         4.89026114393316   12.82355893440268    8.39582343735341
C         6.57480082227334   11.49672532888899    8.34883359338903
H         6.43714161236883   11.20361666693396    7.32000596763394
C         7.61990321335490   10.96051422420507    9.09024857140775
C         7.20225585023718   12.39127640591227   12.42674220378658
H         6.97308600703255   11.46029086484504   12.95978977356159
H         6.56769598386102   13.18788335474451   12.80658978757484
H         8.25346015845603   12.63856917090789   12.60381418003880
C         8.57828105369739    9.96365602600067    8.51437131225134
H         9.59961166727845   10.35407052216214    8.58142017474893
H         8.34271343542915    9.75174103119432    7.47416275264695
H         8.52082326802519    9.02855470576880    9.09169079949407
C        10.60285398301876   11.35130781791399   11.33897454133841
H        10.48676033336798   12.03912073421380   10.49692779582536
H        11.57272798580331   10.85644738397960   11.23735698594434
H        10.64767030551113   11.95277363629840   12.25275191136395
C         7.83227220081868    7.33295100132388   13.52265349433752
C         6.96243003148389    6.79439399350632   14.44281218958185
H         5.96304609515596    6.54590449087794   14.12169703590456
C         7.39165817002633    6.58530663825436   15.74374154279975
H         6.71718641863788    6.15841166567817   16.47144147655236
C         8.68299292965482    6.93233390648847   16.12290917952700
C         9.54767719325182    7.47708925421717   15.17962516917724
H        10.55086994602184    7.73755715021329   15.48587308748830
C         9.13634078092385    7.66331853156370   13.86296326828843
C         9.15831407021718    6.75053842041286   17.53127089276609
H        10.08728036989466    6.18380652832677   17.54738687518297
H         8.41657139241555    6.22916653956116   18.12984291099957
H         9.35239366521565    7.72289723667684   17.98258314648148
C        11.03986371095795    7.34058664989884   11.48466870306101
C        11.27114979493574    7.88976927838675   10.22182746357010
H        10.94937364371023    8.91374852707734   10.04785189774072
C        11.85005514202130    7.15566822155311    9.20667766548740
H        12.01147869206957    7.60607245187014    8.23864106289074
C        12.20530248035926    5.83425996974679    9.42604612406469
H        12.64144359863363    5.24295119342131    8.63601467111141
C        11.98674500602039    5.26870960764739   10.66633236469105
H        12.25662691832768    4.23926025034679   10.84596230958172
C        11.41622661786262    6.01446349493399   11.69503699233785
C        11.23258933988129    5.34213810632323   13.02312950216121
C        11.52020597309252    9.16186704292102   13.62986938356003
C        12.83164358149996    8.77872968669382   13.35254780028763
H        13.00884868103263    8.04727990402003   12.57887960243288
C        13.91259449806709    9.29975735925662   14.03858779507010
H        14.91049749111542    8.96620523296508   13.79707549692629
C        13.71564912988051   10.24350036522180   15.03109739382300
H        14.55055052089000   10.65181418166582   15.57831650657139
C        12.43105318412724   10.66877866681142   15.30891976020014
H        12.25793095390699   11.41651247662796   16.06876722652414
C        11.34711087714401   10.14605645429553   14.60964416889304
C        10.01827430158602   10.71735599532004   15.02000811773043
F        11.68747057213589    6.09796721200118   14.04337110301163
F         9.95916874794641    5.03329935899223   13.30849240941365
F        11.91342944730008    4.18571524230754   13.11900478380348
F         8.96985382050838   10.44605666866363   14.21642777125202
F        10.06136942724720   12.06273609037081   15.08659681752825
F         9.65027547524372   10.30881426049618   16.25170446545110
N         7.80862307401142   11.31359613297630   10.36352052019778
O         6.98781102837170    9.15706347580487   11.90378155615812
O         6.24707105432140    6.89157020598093   11.46122586194475
O         8.58265330176811    7.51556297795225   11.08658421828904
P        10.12884626254133    8.50453677128834   12.58685614028527
Pd        8.99579114314547   10.10357144401016   11.49233736191162
S         7.33734304276816    7.73480506888515   11.86043881602169

