24
CSD_code = SOPDIL | q = 0 | S = 0 | Stoichiometry = C12H10CuN | MND = 6
Cu        1.56333119526123    2.01462191343623   -0.06584714842791
N         2.38998489354903    2.15288941535200    2.75908039537956
C         1.94978113035010    1.17701566176963   -2.02754088969152
H         2.73493793081031    0.49180100194503   -2.30021688183805
C         2.01200289254480    2.58267718196298   -2.10885430022949
H         2.85278094147853    3.15971894332864   -2.45628516015446
C         0.74354722911159    3.09818767710785   -1.75751114302773
H         0.45333727823362    4.13511036699617   -1.78963223082263
C        -0.09949891235184    2.01157503737815   -1.45568538873242
H        -1.14816594900530    2.07053949082764   -1.21654275109436
C         0.64710573930559    0.82265817160172   -1.61681414750384
H         0.26377151205826   -0.18012115636709   -1.52660453229393
C         2.06500597394659    2.09765709206801    1.63618547956760
C         2.76741088675836    2.21758618287540    4.05558075449124
C         3.95546103478404    1.60773069609594    4.46219309288988
H         4.56116520649963    1.08940706038748    3.73480907920754
C         4.33253887788657    1.67991778523165    5.78854053600120
H         5.25034767247637    1.21014867940893    6.10806686464706
C         3.53973158670781    2.35078645347825    6.70750807856224
H         3.84126822252259    2.40304459359439    7.74234977331109
C         2.36012202792306    2.95464794992281    6.29890449249513
H         1.74404625785665    3.47634085149530    7.01544873768766
C         1.96586190130126    2.89372555834107    4.97697426076368
H         1.05082446999140    3.35853339176159    4.64339302881330

