82
CSD_code = SOPHOV | q = 1 | S = 0 | Stoichiometry = C29H48NNiP2S(1+) | MND = 4
Ni        9.07885741696016    2.41749398120531    2.79646651964900
S         7.39975165271641    2.62801265285433    4.20975372649540
P         8.09888988386361    3.14086579528143    0.93377101835692
P        10.35658180995133    1.70578331487348    4.44838868049094
N        10.49045048047898    1.62877023374051    1.57952795497404
C        10.22070397175336    1.46351827047480    0.28169463034715
C        11.13161244952136    0.86286713693409   -0.57937385392973
H        10.88490565594970    0.74467437616354   -1.62227076738451
C        12.33995554194781    0.41266937651771   -0.07950527311386
H        13.05863521344733   -0.06646343445396   -0.72518335244653
C        12.61016421492105    0.59479337912864    1.26555840075645
H        13.54556312760795    0.26843795285916    1.69087620451980
C        11.66568768388520    1.21919074427467    2.06926936299921
C         8.88518333864308    1.90559481896910   -0.21369980987561
H         8.22915884844437    1.02909026839822   -0.21799517726191
H         8.94791200112631    2.27841172105869   -1.23772599255922
C         6.29101390633828    2.94168771557082    0.41979746576594
C         5.79094997119264    1.71991165031509    1.19774886953688
H         5.82616937376637    1.90460869343699    2.26914562278466
H         6.38988146596463    0.83328025595031    0.98766959503100
H         4.76252257034617    1.49888664819069    0.92046602956668
C         6.09843985710896    2.69562297673818   -1.07827404512427
H         5.03146826155107    2.72699063282254   -1.29298302622316
H         6.45919442089590    1.71779038100696   -1.38565351816887
H         6.57753775367801    3.45449022221957   -1.68850383727097
C         5.48172052433121    4.16834127346208    0.83742926800866
H         4.41920678042685    3.93728798840436    0.78507110790618
H         5.66752151452117    5.00980286996375    0.17496546656037
H         5.70824751791594    4.46178290012122    1.85981105442485
C         8.84129169475221    4.79136921873419    0.37934353401930
C        10.35740418851481    4.63869831286645    0.54105966001304
H        10.84225909307336    5.60393713234064    0.40684150812085
H        10.77757443543837    3.94936193640424   -0.18915668566047
H        10.59691815724452    4.27974491084655    1.54729160547400
C         8.51803347604433    5.20892539309168   -1.04978942562814
H         7.46096078526621    5.42545417413817   -1.17430947963130
H         8.81647336418432    4.45390861617428   -1.77425515464227
H         9.06772663212281    6.12007458352176   -1.28216659370283
C         8.37095877096750    5.86103150156466    1.36672099027882
H         8.51769406453249    5.51553467849427    2.39039970085561
H         7.32157895907672    6.10506989861481    1.23780616131800
H         8.94600084918156    6.77473106964983    1.22881356114525
C        11.95098685426095    1.51492707658416    3.50389175497640
H        12.46419092235249    2.48031025248835    3.54356817507262
H        12.61219781679753    0.76515885673772    3.94061536032874
C        10.01876516765963   -0.03763781490169    5.07663546199588
C         9.96556468764443   -0.90062883029294    3.81164677385655
H         9.58181663935171   -1.88906310022091    4.05568323350667
H        10.94594096651487   -1.02464607821499    3.35553419006772
H         9.28652454990205   -0.44996145830126    3.08100926360426
C         8.64284120478042   -0.08210483682318    5.74042103197333
H         8.43342717049377   -1.09749337530238    6.07154506836230
H         7.86814074436683    0.21391198609860    5.03685084276899
H         8.58607014192552    0.57265478800808    6.60402218376008
C        11.07664596134364   -0.55775228890338    6.04391853557526
H        10.98745234262966   -0.07586148841487    7.01364367781507
H        12.08951821681088   -0.41924623917577    5.67258233489532
H        10.92326315353453   -1.62529060090361    6.19323581380148
C        10.86214766001459    2.96238531834969    5.76205623781044
C        12.19020310769884    2.66041000799536    6.45275576265541
H        13.00699357973805    2.52173894180539    5.74914758649777
H        12.12421978623620    1.78164897751018    7.08568483376626
H        12.44503836210903    3.50596974070571    7.08999936831965
C         9.75917783339620    3.08415012091070    6.81215200951378
H         9.94053114204477    3.95509836574892    7.43932202461204
H         9.74155896756148    2.21166038396771    7.46006408146455
H         8.78248475055001    3.19486834868014    6.34551445054801
C        10.97556310068720    4.27560262849270    4.97163093363887
H        10.85378973939014    5.13042434104700    5.63299799273545
H        10.19550652830009    4.32270363864483    4.19778060634128
H        11.94389644285496    4.37391434092720    4.48457999252051
C         6.58757416809851    4.18552767246776    4.33482749857851
C         7.26677732750896    5.35974730872712    4.63678186710784
H         8.34024851913257    5.34865404368616    4.74208787062173
C         6.56606244657004    6.53857875076792    4.81096126557222
H         7.10316518877122    7.44824438266718    5.03310742545115
C         5.18395384150968    6.55135669431043    4.71942975352342
H         4.64039608732529    7.47193584441787    4.86323247331972
C         4.50180312645157    5.37401026743980    4.45712953803763
H         3.42399078345426    5.37190904028451    4.40266613570969
C         5.19572595000414    4.19592814715983    4.25717432148311
H         4.66748334057782    3.27561962189243    4.05977056103104

