22
CSD_code = SOPJOX | q = -1 | S = 0 | Stoichiometry = C5H7Cl2N2O5Ru(1-) | MND = 6
Ru        3.99261207055974    5.11732464352524    0.59439951350891
Cl        5.30967903474920    3.82204916706261    2.03618619684457
Cl        4.26072419387102    3.58542008085377   -1.09615527087165
O         6.08153848808429    6.87259883760442   -0.13642044199283
O         2.41727639542721    4.09839239163659    1.23578262953979
O         0.68535614708669    4.06389186090113    2.63246129815767
O         2.49370346143100    6.16754009261296   -0.43797050639157
O         0.86332312823820    7.60851011613317   -0.03899019551156
N         5.24436346677937    6.10347721251649    0.11742193403801
N         3.36787766654316    6.38807583274455    2.23964930268918
C         1.75670522114457    4.48038199948334    2.24906691546771
C         2.51022972822785    5.56408887032845    3.09201769284452
H         1.78971893104135    6.16736410336763    3.65604633706040
H         3.13828268188286    4.99935658283181    3.78960367858253
C         2.60547315719895    7.46357617934020    1.59488697647616
H         3.29663821871609    8.25851206621618    1.29030884065519
H         1.86148747357403    7.89338339683275    2.27640130114491
C         1.88618058081139    7.03063766469793    0.26571589845631
C         4.47262444640740    6.93015551933888    3.03344630173598
H         4.08857923571604    7.51350693190846    3.87843038973746
H         5.10037576293360    7.57461851188807    2.41653698366048
H         5.08385050957611    6.10513793817511    3.40377422416785

