24
CSD_code = SOPJAJ | q = 0 | S = 0 | Stoichiometry = C6H8Cl2N4O3Ru | MND = 6
Ru        7.55993334692820    2.31167866089605    3.64522045504267
Cl        9.31180814143653    3.71750430871643    3.13240530443297
Cl        7.00890242416459    3.58616089247470    5.48001419427783
O         9.05385637460308    0.33129458358466    4.98647839482198
O         6.38291917261002    3.46071247743250    2.48033257522559
O         5.08344690128093    3.47431492051535    0.67459243938243
N         8.46536975803222    1.19324846696265    4.48976819813463
N         7.90139577640064    1.53429991101869    1.64207193604334
H         8.32079758882005    0.61135130666820    1.52508977788196
H         8.56130116799623    2.23503308484749    1.27754162607373
N         5.72610499762935    1.26759838609724    3.81306193871843
N         3.65876803227210    0.97147350428465    4.42268151959753
H         2.82204164076569    0.98032631797755    4.98484671260932
C         5.94547948019973    3.00556371781775    1.37869921168251
C         6.61170411434728    1.62914150006054    0.96001625085850
H         6.72414360251711    1.60584025548327   -0.13098639972541
C         5.67806532036401    0.49463440166050    1.41131807050088
H         4.88008583905148    0.38060611166917    0.67720870056821
H         6.23874203760567   -0.44695170903040    1.45503832780825
C         5.04397914146730    0.76349974824248    2.74039343404488
C         4.87044110723831    1.39150830035196    4.80531283186297
H         5.12158569664328    1.78845807688626    5.77173779622957
C         3.74417215576130    0.57522636998681    3.11963744461668
H         2.90435618186456    0.20747640539605    2.56861925930998

