41
CSD_code = SOPJOW | q = 0 | S = 0 | Stoichiometry = C19H15Cl3N2PtS | MND = 6
Pt        3.01609552977417    1.52184331275857    1.68026462341539
S         1.86320868572637    0.71645293860376   -0.54387140368914
Cl        0.96119288564828    1.20508501985761    2.78151240974169
Cl        5.16491266846704    1.71114934306636    0.66907751143994
Cl        2.59024598685958    3.75768877036324    1.35608346750932
N         4.00833274776511   -0.79074570828493    2.93304277661458
N         3.41396032249139   -0.41524012208040    1.88719797860881
C         4.27309487014096    0.20534169096873    3.81981527763058
C         3.90630882987319    1.53070073853574    3.49082241927893
C         4.15727305549321    2.56275808784284    4.36048073801924
C         4.78908009980402    2.28428500752207    5.56959399081240
C         5.15798209912231    0.98609948340565    5.90433079050263
C         4.90599664815239   -0.05838557914015    5.04179647794400
C         3.11875515888903   -1.33979911075480    0.90128495589746
C         2.43242832995873   -0.95698181230650   -0.26216459356618
C         2.11860954694503   -1.91223086318968   -1.21793677664145
C         2.51871592642813   -3.22719537999200   -1.05783944383715
C         3.22051377409789   -3.60660198143489    0.07831593302743
C         3.50885706736016   -2.67772343698093    1.05359698964317
C         3.01956214417701    1.28340928661363   -1.88221843506790
C         3.03173192526689    0.35828788882598   -3.04457099799870
C         2.02635051756093    0.40745956526167   -4.00503843910500
C         2.03268632208441   -0.47678669760346   -5.06803457503956
C         3.04045412455343   -1.42141600168605   -5.18008273670880
C         4.04467642153450   -1.47600335497190   -4.22842413204666
C         4.03952554852684   -0.59334279883104   -3.16294502238462
H         5.64464606575731    0.79714966198983    6.84902443874354
H         1.54658991764400   -1.62051183126189   -2.08403964664437
H         4.00593408406548    1.38908749766131   -1.42969456661288
H         2.61676292098268    2.26402330212767   -2.13531748273284
H         4.83400000539470   -2.20767652345055   -4.31502496966191
H         4.99383836055799    3.09360061668362    6.25401622052714
H         3.87438621800290    3.57487596606309    4.11121788173566
H         4.82524626310145   -0.63195103898733   -2.42206515743055
H         4.03681467922413   -2.94924316983782    1.95416225929041
H         1.23891822238888    1.14148461578787   -3.91343064428859
H         5.17725128050225   -1.07434847854704    5.28022387530475
H         2.27200520612112   -3.95519267270801   -1.81474236536916
H         3.04398472692074   -2.11113418860392   -6.01079483951204
H         3.53105693657103   -4.63190489492625    0.20695307413254
H         1.25091387608682   -0.42926714835165   -5.81137786150293

