44
CSD_code = SOPPAP | q = 1 | S = 0 | Stoichiometry = C11H21N8NiO3(1+) | MND = 6
Ni        1.66476388648421    0.14840422944164    2.89545426057686
O         2.89242568555932   -0.45608758190340    2.02054496090357
O         3.82192542784832    5.60794830651741   -0.61491721094572
O         4.32970379527907    2.26965819322558    2.39906096912517
N         3.99495216698276    3.89149680224878    0.86155513248624
N         1.93213910625111    4.48882233066986   -0.03510088655195
N         1.24318638068116    1.72855063599645    2.03916902647734
N         0.08986800622491    3.09356656770096    0.70004915339659
N         1.81363923431078   -1.69761437636139    4.16022186490611
N         3.13693312583119    0.74188496016200    4.25539292581351
N         0.11567111448861    0.44793240693257    4.27056033436245
N         0.46698775964446   -1.27345411798776    1.71288602803392
C         3.28810637654409    4.73517202220907    0.01079828842860
C         1.38757314917597    3.46913618121751    0.67398535029153
C         2.13893552757896    2.64379096323499    1.50534859721077
C         3.55270542291833    2.85658099157226    1.66057263514650
C         0.05261209013492    2.05516231093067    1.50670706312250
C         3.23050512778999   -1.68918909617707    4.54017936243830
C         3.62311744164149   -0.33208650957762    5.13235375578810
C         0.90508704593411   -1.63158416969647    5.31646668698012
C         0.39295298252633   -0.20562095641461    5.56223041037741
C         1.49549094175134   -2.83145523713679    3.28401428747824
C         0.25025483629832   -2.52993503719884    2.44430851245231
H         4.99167701626121    4.08199237814972    0.90076417753794
H         1.35732844148663    5.06716857488660   -0.63334461207625
H        -0.86734952658523    1.54657044672264    1.72631715053748
H         3.80831374620176   -1.82124425476460    3.62196607921280
H         3.46878247707233   -2.49962316158858    5.23933980521615
H         4.71264065831231   -0.29497066093226    5.22154589398462
H         3.19771094778362   -0.21770036639141    6.13193975150931
H         3.86106849689716    1.04508519071181    3.56610607545859
H         2.90805108321725    1.57724554917262    4.79191371045414
H         1.39755707359222   -2.00444792751634    6.22086100440012
H         0.04717751697615   -2.27847571354752    5.12512088078856
H         1.13552664302072    0.39004370086651    6.09312521786197
H        -0.50413265204089   -0.24936413960767    6.19170821144658
H        -0.10576279262146    1.42939431663077    4.43646786702004
H        -0.73072393363605    0.03425091859798    3.87811651850619
H         2.33463741636729   -2.96711438151861    2.59986186004616
H         1.35574210670283   -3.75743325896575    3.85400542228881
H         0.07161682467397   -3.36903476670081    1.76246661380308
H        -0.63438873379813   -2.42139394638799    3.07743308535254
H         1.16342451756085   -1.43995959340314    0.97919302115434
H        -0.39003395932464   -0.97506872402077    1.24965075719743

