49
CSD_code = SOPQOE | q = 0 | S = 0 | Stoichiometry = C26H19NO2Pt | MND = 4
Pt        3.09023015004216    1.77329509259283    8.03417710261232
N         4.29094159887442    2.08494911640673    9.54078924419878
O         1.59087215453399    0.79847564793485    9.20342950794206
O         1.93196189529715    1.50955410702163    6.42220547788108
C         4.03291181277716    1.67002921217871   10.78025380044572
H         3.10627270722297    1.12884078125789   10.91961954040639
C         4.88820893250626    1.90543646381003   11.83940164400476
H         4.63845766448942    1.54946156667533   12.82584945026213
C         6.06548633947008    2.60422081789761   11.60418088774678
H         6.75542680297696    2.80684180975069   12.40916297816014
C         6.33902653117292    3.03341883066141   10.31969657534064
H         7.24610545138313    3.57562444070623   10.10768256040024
C         5.44058960058207    2.76464918458608    9.28911427306530
C         5.60191997460407    3.13895171261274    7.89314080290285
C         4.53858076171826    2.72264380405663    7.06028643629136
C         4.61577871723282    3.02163719773638    5.70550499582277
H         3.81945155323563    2.70708118262497    5.04613451833988
C         5.70167799103132    3.71070757087683    5.18957009526360
H         5.74679947884279    3.93395194375737    4.13279384157433
C         6.73605248068391    4.11834885592282    6.02013436444547
H         7.57808045110379    4.65676037700218    5.60983073514535
C         6.69155317508952    3.83415541936018    7.37041668954608
H         7.50139426087422    4.15266964263768    8.01068081444891
C         0.49249543912024    0.36123899674668    8.76363026749929
C         0.05791246988193    0.41341680738686    7.43250079266036
H        -0.93460722947304    0.05201668313037    7.21940553625346
C         0.78474472386917    0.96241962711801    6.37378969364378
C        -0.42971861138718   -0.23465617726154    9.77048183173457
C        -0.45593369812671    0.30649935896634   11.05322018751067
H         0.17995967266712    1.15078694224296   11.27676402033584
C        -1.29319454477846   -0.21701959229455   12.01975923811522
H        -1.31398458901384    0.21821501490661   13.00835603335355
C        -2.10357606191698   -1.29958900589145   11.72062263758378
H        -2.75759383199560   -1.71192787891638   12.47491316799939
C        -2.06887368226928   -1.85702925129819   10.45297491156559
H        -2.69016561868787   -2.71025123541137   10.22201861665122
C        -1.23942443650647   -1.32863175474659    9.48095281878779
H        -1.20320073080034   -1.78352050087583    8.50230665743592
C         0.15843932015119    0.94916419533835    5.02259393198714
C        -0.63863327820090   -0.10279897350459    4.58130133084939
H        -0.81222807027482   -0.95535946542896    5.22075106912142
C        -1.18477688147381   -0.07679004412751    3.31112994257676
H        -1.79749121171156   -0.90026743260244    2.97396663022007
C        -0.94544170791572    0.99711557022642    2.46953770768452
H        -1.37730557540142    1.01458544013997    1.47963629280361
C        -0.14476296520470    2.04310523975590    2.89789969563789
H         0.04957440135940    2.87935291717946    2.24237091630705
C         0.40975052743904    2.01613473115700    4.16317593558924
H         1.03805568491798    2.82408501002461    4.50768379983109

