61
CSD_code = SOPROE | q = 0 | S = 0 | Stoichiometry = C28H9F18FeO4P | MND = 5
Fe        4.11478525830511    9.58722371298155    0.13975560051461
P         3.56165831757075    8.69763263557722   -1.74913177868135
F         2.91758376490763    4.60334455443681    1.50558071905588
F         0.83579955087504    4.17418727100515    1.17318353228781
F         2.34406827527350    2.92062707491925    0.29352556719931
F         1.41934692445595    4.99334319153072   -5.21328872551740
F        -0.39224325253759    5.85723523566764   -4.44450071428120
F         0.05973342046608    3.78815235504782   -4.05783090396478
F         8.56996598554584   10.63734491480965   -3.95693776011536
F         8.13942528862100    9.94364661316219   -5.94580591567348
F         6.80738478952496   11.32898218722568   -4.97642809746167
F         7.39387405419302    5.11131609844558   -5.29284510319490
F         6.11097154150436    4.42391531089914   -3.70762319129704
F         8.10949182215855    5.08588199012929   -3.26639800040358
F        -1.21226794284154   11.30142543297084   -1.70260044669531
F         0.14997384448083   12.96243016502787   -1.63601313825975
F        -1.16180137936639   12.71569726300588   -3.32355041703087
F         1.46695737052247    9.18931639814597   -7.05797252758422
F         3.25593503817082   10.37101805380156   -6.91958863649772
F         1.35112590310308   11.33297535486546   -7.21274343458916
O         5.00120587244088   10.74065319159031    2.65183604509175
O         1.56028114713071    8.91443553576413    1.43358944002228
O         4.36404216375107   12.22796161208731   -1.12638324512805
O         6.42876987847852    7.77820862722717    0.21899940685710
C         4.64982812985643   10.28781623792430    1.66419451860003
C         2.54701696867506    9.17233027048684    0.91270356708141
C         4.27091714352860   11.19584035288035   -0.63906082264962
C         5.51922327559171    8.47515709836777    0.20230798386220
C         2.65882147065021    7.09162064648400   -1.78470011468365
C         2.68586969019382    6.28973166578902   -0.64770329436536
C         2.03858270276203    5.06438808854244   -0.64826366025377
C         1.35085383671540    4.61992975090318   -1.77072679736459
C         1.33224742501986    5.42508561069861   -2.89890791346467
C         1.97972751061560    6.65294071536683   -2.91568330862905
C         2.04137890327197    4.19208423922317    0.58533962854194
C         0.60056851649692    5.00179063969968   -4.15014115143104
C         4.96212402838264    8.28931322370968   -2.86204644383421
C         5.67803974496363    9.34943680245629   -3.41452945751452
C         6.79866251026771    9.09868117843063   -4.18850289357938
C         7.24120970079658    7.79862862863009   -4.39958925713186
C         6.53503830132856    6.75183851977774   -3.82496193601709
C         5.40446904078431    6.98627213770930   -3.05507904966403
C         7.57662557845643   10.25313171370141   -4.77418747131188
C         7.03379504983100    5.34052476317103   -4.02492303316741
C         2.49665276780909    9.66557380769430   -2.89614273191412
C         1.50461433007850   10.45452984437250   -2.32419549584890
C         0.66324666896976   11.20975551310110   -3.12766578536788
C         0.79708126903692   11.19936805592157   -4.50867515877516
C         1.78955392872597   10.40984169549416   -5.07064188321805
C         2.63254967597337    9.64057060384766   -4.28059773916870
C        -0.39519381534925   12.05265810006344   -2.45656524898641
C         1.96166197840985   10.33909102005668   -6.56923799712218
H         3.21725646460001    6.62817024071502    0.23395399675577
H         0.84606841477796    3.66543957706824   -1.76398834622009
H         1.94477478287098    7.25480285908368   -3.81224876883362
H         5.35278927080788   10.36777590061845   -3.24381030885085
H         8.11563781584685    7.60641732043562   -5.00314592548589
H         4.87568583172185    6.15399942787380   -2.61281432255560
H         1.39968721529361   10.48725535286391   -1.24634939512066
H         0.14866681645640   11.79664350164845   -5.13190555813765
H         3.39779941904763    9.04131011486644   -4.75433669882484

