126
CSD_code = SOPXIH | q = 1 | S = 0 | Stoichiometry = C63H54ClN2OOsP4(1+) | MND = 6
Os        7.87199094224516   17.97262329587960   12.02635797139818
Cl        6.23758914043405   17.01306403324669   10.59053226501097
P         8.83743259074219   15.80522171716042   12.48907763351296
P         9.57038983928829   17.61501111954580   10.47746090081777
P         9.04717265015860   18.86131107042388   13.87710218945346
P         6.40761111596467   17.95444775730964   13.85991541838129
O         5.19197194605051   22.58197879273864   11.71239341680408
H         4.96599756603048   23.37271422572408   11.20790131498399
N         6.93781778507681   20.21475903487879   10.00202873300618
N         8.55780548504976   22.98013444968212   10.52873319731312
C         7.22750485900447   19.83775467856061   11.35524859225991
C         6.88670617493358   20.90631186676218   12.10654892203071
H         6.93720459258325   20.99246002276318   13.17322604048486
C         6.43114746580159   22.08488224963152   11.28600645998127
C         6.43178927189810   21.46481219343132    9.91170530770588
C         6.04212422057080   21.99772102376559    8.70769697869545
H         5.64650718178919   23.00012715523360    8.65968942578130
C         6.16761984381238   21.21964655353620    7.56123906140031
H         5.85701371400258   21.60681688295259    6.60398135143851
C         6.69967455467592   19.94462343331865    7.67291407679958
H         6.81719748231380   19.31284394929914    6.80763276165989
C         7.08532386770752   19.46473122158524    8.90942468412168
H         7.47396882053792   18.46572666443977    9.03074308566509
C         7.54174569305860   23.12831999954135   11.36844499133189
C         7.46986602089804   24.15140853123673   12.30480946668591
H         6.62666667864558   24.21409711201069   12.97469663346482
C         8.50056839008371   25.07505557386142   12.34227819156335
H         8.47273370032283   25.89427671781616   13.04489912290893
C         9.55839802808104   24.93544568766634   11.45772547324622
H        10.37444192424709   25.64002058911708   11.44838808911962
C         9.53803193898412   23.86510259915573   10.57733089473180
H        10.33170318017142   23.71097950858036    9.85851275738284
C         8.21518608577508   14.18825013759085   11.91329258351527
C         6.85144292335939   13.96688416617838   11.77619768838527
H         6.15680335789525   14.77243789134713   11.95729845451739
C         6.39058152781511   12.72235445508230   11.38239485408322
H         5.33003782894846   12.55674415800646   11.26820902238856
C         7.28629477034591   11.69730699812725   11.13386160215432
H         6.92730526994704   10.72791921879399   10.82279925324320
C         8.64805298635214   11.91026420387695   11.29156297993159
H         9.34593650324833   11.10615642825814   11.11088876870114
C         9.11464864852127   13.14811831468938   11.68695580273231
H        10.17552417907652   13.30659574987974   11.83150675858538
C         9.56803690835549   15.17009617393648   14.04122812042608
C         8.63584660444190   14.75965590339242   14.99358245077000
H         7.57993897457613   14.82382355287551   14.75621398731194
C         9.04846400103810   14.25686581120346   16.21141138090190
H         8.31650066946826   13.94214661453118   16.94045781962282
C        10.40265269053041   14.14916606848179   16.48785642444157
H        10.73123571950258   13.75576518892873   17.43759947762704
C        11.33242097870047   14.53281698094026   15.53743631876401
H        12.38772472111461   14.43271578654839   15.74253886741509
C        10.92167253987130   15.04269581701144   14.31747976588488
H        11.66882481764388   15.33146252574086   13.59365669678851
C        10.27939845008285   16.13255805654567   11.35458140514399
H        11.15194076482919   16.44675634124718   11.93207121402597
H        10.53711549060340   15.30056756741478   10.69418887910940
C         9.31301618348876   16.93511515947889    8.80403759445583
C         8.63849206690194   15.72346070501694    8.67478102378801
H         8.30448680709658   15.19424439903289    9.55753777915609
C         8.37884396770797   15.20729731616203    7.41942525004059
H         7.85812968153556   14.26649696731497    7.32532718785592
C         8.78132816277365   15.89832648228870    6.28767387045606
H         8.58086761554888   15.49251614653071    5.30778823403657
C         9.43514206758175   17.11395622724854    6.41224115554867
H         9.74410840694439   17.65529946544788    5.53031597606703
C         9.69357317420747   17.64021209341087    7.66476966733452
H        10.19426608298992   18.59420067422692    7.76234117427154
C        10.99781632727166   18.71116527573820   10.21791154145049
C        12.22139093490813   18.19768063115978    9.79598619671742
H        12.31243625199609   17.14230908040421    9.57631917593772
C        13.30765754481505   19.04010389168116    9.65540335078828
H        14.25815131350339   18.64455457202991    9.32980717451127
C        13.17788249091585   20.39279155856357    9.93516950763510
H        14.03087389378955   21.04619959487044    9.83136272545195
C        11.95851813831258   20.90589613460642   10.34588065792464
H        11.85911404659806   21.95800889633412   10.56694278820978
C        10.86475787260595   20.06883110616140   10.48534703485267
H         9.90724215428442   20.45746444299462   10.81304854612853
C         9.22351801083570   20.63691968358917   14.29780440294659
C        10.31678037246968   21.30411853113723   13.75065572618686
H        11.00757305546790   20.76620794802936   13.11791926291005
C        10.53133467705483   22.64131690300217   14.02163358543301
H        11.38810603824721   23.14468568413606   13.59884461301752
C         9.65366005675457   23.33255653270009   14.84047258823003
H         9.82807776289004   24.37357327532105   15.06544065958390
C         8.55335839329151   22.68219006670985   15.37168879938536
H         7.86055896633170   23.21769964996754   16.00382767849282
C         8.33358321760812   21.34313799157403   15.10047328842257
H         7.45647315113737   20.86592409213403   15.51295610700671
C        10.64840769677800   18.32059905684585   14.57678398450641
C        11.75996795587610   18.28730599666302   13.74087876993051
H        11.64445158978662   18.54432635941510   12.69532108435358
C        13.00129656990382   17.93617906547032   14.23828279355286
H        13.85850259863131   17.91521781923888   13.58094948901913
C        13.14125293397657   17.61313748864356   15.57783044537953
H        14.10827905726664   17.33558176369806   15.96866098400844
C        12.03990933806914   17.65352825459529   16.41688689552581
H        12.14948958501732   17.41019330345798   17.46299266739303
C        10.79841905920965   18.01132238152769   15.92386882814759
H         9.95181576113667   18.05286912487898   16.59313771921121
C         7.79210418836441   18.20079190424952   15.07884475454091
H         7.59379856021183   18.81058113115784   15.96043608977178
H         8.14047527780677   17.20609855906509   15.38279745284415
C         5.14661754263111   19.22850228209768   14.17973553485301
C         4.90107949450716   19.77156644987162   15.43447322973445
H         5.48645296060193   19.46786860612576   16.29205341198638
C         3.88492617312505   20.69709301695073   15.59263233007694
H         3.69839009736493   21.12618367828121   16.56627830097163
C         3.10286091024232   21.06602251355922   14.51037694315397
H         2.31296885409819   21.78988912354384   14.64174371091756
C         3.32363930477837   20.49909470262734   13.26565073270925
H         2.70424039349981   20.77611447750140   12.42677774175455
C         4.34287980661405   19.58186228329554   13.09917085892934
H         4.53242809148494   19.13086478510582   12.13347710863830
C         5.44330598950915   16.53827359833128   14.47508694806529
C         5.52617062963964   16.06156043334167   15.77865530074218
H         6.21180124025005   16.50836320665316   16.48530809112307
C         4.72489412752005   15.00478574231162   16.17319513769259
H         4.79029917473029   14.63248159418513   17.18495756640653
C         3.83925343300418   14.42668599325263   15.27823786158029
H         3.22025555374091   13.60037350979943   15.59299832948391
C         3.74220927745693   14.91277459182313   13.98425834118462
H         3.04548766146699   14.46890851990942   13.28927324800225
C         4.53786030501580   15.96965651975296   13.58310712161229
H         4.46998584165514   16.36262716215930   12.57682988231799

