69
CSD_code = SOPYAY | q = 0 | S = 0 | Stoichiometry = C30H30N4O4Zn | MND = 6
Zn       11.42173891068468    2.03776160370478    4.31304879993274
N        11.74979336026985    0.36352408279188    2.81460850441739
H        11.26713443731783   -0.52382256891433    2.94055019045552
O        11.27288081629895    3.08927547300117    2.70618000038887
C        11.57794828582327    2.51149526022762    1.61796271484940
N        13.51240481542251    2.18043872268491    3.91754857521221
O        12.06905611436335    3.02247196040575    0.63036362199406
C        11.25970321641049    0.98116848346000    1.57991242560731
H        11.75181343488829    0.55442088528553    0.69305773217023
C        13.18767213099268    0.11274951025808    2.76168710946190
H        13.48206265020328   -0.37131212044507    1.81939202631821
H        13.45942580711466   -0.54595362189150    3.59421496219616
C        13.93374655643928    1.41019044918099    2.91951340935552
C        14.97533065743813    1.78560513223764    2.08679576514673
H        15.28585628931843    1.14274865816308    1.27797453969482
C        15.58223579734812    3.01365966023802    2.29460219896145
H        16.37947404880667    3.34393219444307    1.64612290608320
C        15.13420564256146    3.81335771472359    3.33292606101438
H        15.57051279116295    4.78140191958736    3.51902402054361
C        14.09013383792354    3.35617357958169    4.11841308607440
H        13.67811592812903    3.94115362613537    4.92738476300952
C         9.74427918646555    0.78776060780254    1.47121902185376
H         9.51539326729822   -0.28453113288726    1.46136322023320
H         9.27900589141998    1.23939221904671    2.34997275862173
C         9.22194623331163    1.43336313570613    0.21871288338325
C         9.19279585686043    0.72967335216633   -0.97748746488197
H         9.52132089832389   -0.30083499119271   -1.00091377479256
C         8.74735413501324    1.33376791348651   -2.13959782136161
H         8.73018505984835    0.77485082909531   -3.06426414176883
C         8.32959088903799    2.65271610545942   -2.11744102564894
H         7.98599849142388    3.12714745591622   -3.02496833087990
C         8.35803544566156    3.36216418641271   -0.92898262931333
H         8.03847978188706    4.39360838541312   -0.90787413114701
C         8.80002332958665    2.75551854795369    0.23234003001693
H         8.83107851234096    3.31252157931602    1.15670239738374
N        11.09270365647419    0.36319598226002    5.81083898222252
H        11.57515026532646   -0.52425378277864    5.68480431419989
O        11.57088080617639    3.08878424134204    5.92014445415782
C        11.26471109286806    2.51079528752680    7.00795060750756
N         9.33109152917718    2.18106089216209    4.70811179903825
O        10.77263563758367    3.02155782233066    7.99517610428547
C        11.58263994010079    0.98039886828796    7.04583254699485
H        11.09017003760779    0.55357441288247    7.93244919055899
C         9.65475021373632    0.11278491641119    5.86328853185019
H         9.35995692760423   -0.37136091629635    6.80541304894278
H         9.38309194133360   -0.54574243326057    5.03058270328134
C         8.90886278628200    1.41033166888328    5.70538332728147
C         7.86632305159814    1.78523243667175    6.53714454526306
H         7.55505143852189    1.14199578138983    7.34537570076334
C         7.25934430695902    3.01320786920932    6.32910731915691
H         6.46126050452619    3.34302097758738    6.97677682233940
C         7.70833596882877    3.81341634437906    5.29158848029438
H         7.27196431097107    4.78140157767899    5.10534035899450
C         8.75339561980320    3.35678360436807    4.50710309317786
H         9.16619400920755    3.94214820176544    3.69880621249661
C        13.09797768644774    0.78650842517328    7.15482643257093
H        13.32646928930240   -0.28585769466186    7.16532954045677
H        13.56349398311590    1.23748166294778    6.27585539132151
C        13.62046939448790    1.43268861570985    8.40697561324972
C        13.65019066908493    0.72950729894139    9.60346011787322
H        13.32200903936830   -0.30109082163283    9.62742975488583
C        14.09586275423582    1.33421567369746   10.76517029510547
H        14.11356849726374    0.77567271459541   11.69004323704381
C        14.51328618646972    2.65326237986043   10.74232796321985
H        14.85706352131498    3.12816084206018   11.64954020921421
C        14.48428071070983    3.36220599844664    9.55357433074320
H        14.80348865047496    4.39373958107494    9.53193253908147
C        14.04206740875805    2.75495186292332    8.39266105071051
H        14.01052565685911    3.31156090956578    7.46809097715350

