92
CSD_code = SOQBEH | q = 1 | S = 0 | Stoichiometry = C48H35N8Ru(1+) | MND = 6
Ru        8.48237413663243    1.81356875414542    2.66777560994778
N         9.01187533701887   -3.05639188615778    4.76277338683186
N        11.44865105716531   -1.99149109845470    4.83751687470751
N        10.17028425488126    1.06388855656014    3.61761910758034
N         7.79859570901161   -0.05941736052552    3.22425728230432
N         7.62231877776088    2.49027051054699    4.31583568911003
N         6.77008272791266    2.44737578187772    1.90300236694711
N         9.34994615391529    3.48655561344068    2.05804672790317
N         9.35389537029786    1.14775404330335    1.00672089958640
C         8.60452445748940   -4.14994844753085    5.51441856183572
C         9.47634379893291   -5.23615021338985    5.61406331055527
H        10.42099211398001   -5.20429836117243    5.09214940976331
C         9.12934248284012   -6.33785559029209    6.36952966896415
H         9.80494181884385   -7.17711246771444    6.43283711076293
C         7.91972057669340   -6.36791709444902    7.04656975141058
H         7.64799897738482   -7.23184175501889    7.63264905861328
C         7.06984765512857   -5.27544340470391    6.98273313720029
H         6.14075255946023   -5.28091997134972    7.53257088882540
C         7.40598529720498   -4.16794118263970    6.22805388182101
H         6.76050398592133   -3.30328006506902    6.21203892054563
C         8.26471864602521   -2.10888903832595    4.17834243934482
C         6.91054275760306   -2.11220543884857    3.74058292501486
C         5.91407311859402   -3.09257102543370    3.68873194404652
H         6.10057785161546   -4.08446525016510    4.07022335098337
C         4.70186094073476   -2.77909066920430    3.12310632658631
H         3.92306718752746   -3.52397171182320    3.07431433177482
C         4.46184428151195   -1.50359507088582    2.60017284198656
H         3.49555133916181   -1.28666361220130    2.16935544131776
C         5.43303504582650   -0.52908865969989    2.60415766572062
H         5.23725542908213    0.43668661352427    2.16499738244987
C         6.67754267257374   -0.82374853722200    3.16537677401344
C         8.77823148533215   -0.82294086567129    3.80717822786172
C        10.03701098106725   -0.23072795640091    3.96716586735098
C        11.46725711915350    1.44675459235029    3.89020221825273
C        12.06369432729375    2.69008545913699    3.73160761427001
H        11.50063632084630    3.54272535576792    3.38625716165329
C        13.40639622897873    2.82224522517951    4.04404410466339
H        13.88186308873108    3.78431763487843    3.92380333439908
C        14.15320451010123    1.74582827993623    4.50603867002210
H        15.20102048921915    1.87808949946064    4.72541053853799
C        13.56239705124220    0.50925023981518    4.70452916025205
H        14.14242128579908   -0.32178499898981    5.07533289784046
C        12.21442083446249    0.36357432704798    4.41737792244254
C        11.29786579456514   -0.76042235207143    4.49257786902562
C        12.53034048978776   -2.54819696110935    5.48079484582447
C        13.02394145219851   -3.76953965061565    5.01440396182686
H        12.63124952769679   -4.17579789340614    4.09369405256759
C        14.03439728734645   -4.41486420928571    5.69755704813319
H        14.42412066900405   -5.34752265945324    5.31828966160883
C        14.54170528005450   -3.87700388458903    6.87020209256097
H        15.32366434742985   -4.39016375378154    7.40781073279255
C        14.03519201422677   -2.68104799354408    7.35391383220818
H        14.41759660415993   -2.26414900383756    8.27373193752112
C        13.04331613745967   -2.01226725307450    6.66568096261119
H        12.62939431544288   -1.09021321354836    7.04860041137643
C         8.14825903579052    2.45789091551167    5.54282149456969
H         9.17835577994198    2.13107998103964    5.61252102344529
C         7.44567834172285    2.81974327925775    6.67451448375685
H         7.91923043458159    2.77023745046257    7.64135702942881
C         6.12663532650606    3.24097669214093    6.54365031096503
H         5.54788385241937    3.52382591757856    7.40800657755552
C         5.57385330079966    3.28950675385137    5.27868132866333
H         4.55335869508865    3.60823308887576    5.14597478780936
C         6.34069932673388    2.91182387866164    4.17687112686308
C         5.87424613848701    2.93501492806838    2.79632206804627
C         4.63141207915735    3.42007210113555    2.38883201751202
H         3.93385852078266    3.80067458083489    3.11613843319154
C         4.29924518333853    3.40876002488989    1.04817781565179
H         3.34129189900615    3.77419329411226    0.71539097118989
C         5.22907203216031    2.91526529924865    0.13894678110769
H         5.01398272508886    2.88812746936481   -0.91663738380614
C         6.44027346899378    2.44956108485603    0.60922885753927
H         7.17657578533928    2.04785708661287   -0.07715675289028
C         9.18372901662834    4.70339569089052    2.58452012257935
H         8.49893981462793    4.77788390105552    3.42167326711030
C         9.84703986955469    5.82286631900124    2.12567448165199
H         9.67820833980529    6.77919782524059    2.59293985896285
C        10.73831739098012    5.68929886725512    1.06538831625451
H        11.28347120887283    6.54077016127646    0.69172207736179
C        10.90412219657171    4.44083257856803    0.49867688840318
H        11.57729515891692    4.30899964781783   -0.33181451889635
C        10.19435318791311    3.35202827292412    1.00493515909640
C        10.24031214014163    2.00681626867434    0.44594038231686
C        11.07634903002763    1.61068788908505   -0.59777350557883
H        11.78867922810324    2.30276735337433   -1.01510685769296
C        10.99493251293229    0.32027530847369   -1.08413894831495
H        11.63893339687945   -0.00668584547870   -1.88453866030332
C        10.06061389782191   -0.54302657155298   -0.52260768141964
H         9.95335077327546   -1.55443558742891   -0.87873439291144
C         9.26695858198790   -0.08847370910551    0.51215265820794
H         8.52679855348416   -0.73510491057881    0.96653340521790
H        10.03119961520070   -2.83946721130714    4.77348878330519

