66
CSD_code = SOQCUW | q = 0 | S = 0 | Stoichiometry = C18H38N3O3PSi2W | MND = 9
W         0.59437654590166   18.20302470063681    2.92186804463068
P        -2.02733549981080   15.57654522368290    6.25693597542439
Si       -0.13364394575452   15.84729988914970    3.13416696528521
Si        2.83225493165301   19.40834888742922    3.26026150408722
O         2.68702939991473   16.68672695692474    1.17020322632643
O         1.61294907902448   17.56287176780726    5.80354326576702
O        -1.46488683218780   15.83305842456051    4.91231941752568
N        -3.50602961772667   14.76185173932838    6.26552222274545
N        -1.05346052691887   14.54673741182346    7.15358496801022
N        -2.38826067919650   17.02879430218469    7.01038742563276
C         1.94563685879363   17.23051041018245    1.88290556127150
C         1.27936196894500   17.76353182673849    4.70261842060475
C         3.40618140592222   20.29195708330703    1.64719917853468
C         4.36685057871365   18.37532274082912    3.79459027315213
C         2.72155918641387   20.79358446068064    4.60063143816079
C        -1.58068460719262   15.07325244834810    2.10898660119537
C         0.87516497038423   14.28395975251349    3.65512952289686
C        -4.62670155490405   15.52056417966500    5.74123159125324
C        -3.43290360461160   13.43525755178793    5.67793049496031
C         0.36545522008138   14.84340293272068    7.15732217113001
C        -1.51982135657959   13.94056742605786    8.38118762157451
C        -2.93662209796290   17.02033927555754    8.34827158712651
C        -1.59697701318756   18.19828765530407    6.69403678209596
C        -1.25074795981227   18.67569056463517    1.55217123464305
C        -1.65782766326464   18.88727352302185    2.90257066429935
C        -0.91673367168240   19.96702616198923    3.41658664920332
C        -0.05750917616018   20.42901698537350    2.39097342254220
C        -0.26400789072693   19.62946462594353    1.24232718586906
H         2.70395423545145   21.04622853242783    1.30813492297386
H         3.53422759465815   19.57524496443213    0.84278327891613
H         4.36131429651642   20.78375488362277    1.80390538781433
H         4.58771027506829   17.59977021938519    3.06925885844721
H         4.20104532812214   17.89191602923158    4.75137844594207
H         5.24778980882514   19.00289076174924    3.88812428585507
H         3.67734328067530   21.29817526586774    4.70457717794326
H         2.46594863908432   20.37238187998651    5.56761061367752
H         1.97909529145549   21.54929350164650    4.36546878513187
H        -1.83349210819062   14.07461879472823    2.45703700693078
H        -1.30430075120067   14.99896835166940    1.06025730589044
H        -2.47906725129706   15.68030591063238    2.16988909554822
H         1.78110326375401   14.55907304415612    4.18760861250742
H         1.17674837773646   13.72648839187504    2.77206432329717
H         0.29294444068871   13.62159615178977    4.28991708688966
H        -4.62207161364126   15.55517045157407    4.64591603350830
H        -4.58371995342637   16.53787607838224    6.12150952255221
H        -5.55566818994846   15.05044646385708    6.07097163651769
H        -4.28729642696290   12.84695810898763    6.01982739166751
H        -2.51104556863187   12.95157337426682    5.99137823878107
H        -3.44911719876360   13.47507266887960    4.58333064779653
H         0.65911440915544   15.42323155953547    8.03883456440332
H         0.61427613659256   15.41389049209684    6.26682491643870
H         0.93168759058026   13.90920608511788    7.15497577730381
H        -1.05963348179585   12.95414712881007    8.48548379753004
H        -2.59969375218518   13.82427317746577    8.34505556513664
H        -1.25087100028337   14.53424752723360    9.26193591502295
H        -2.15746212915251   17.10417088761320    9.11429202183322
H        -3.49476747370540   16.09974634449802    8.50194868345676
H        -3.61615520632580   17.86947618850149    8.46295530251682
H        -2.24346412536839   19.07999828183808    6.69494578422617
H        -1.16060580648348   18.06961448864469    5.70425957835789
H        -0.78754731123756   18.35715790422593    7.41379115993113
H        -1.73388046099007   18.01173549561596    0.84679798914054
H        -2.49031334088613   18.39649407952131    3.39057373305448
H        -1.07588674286337   20.45823158335848    4.36917078891190
H         0.52421124563251   21.33834867304928    2.42540169684371
H         0.16087923143452   19.81235736571040    0.26314065141447

