48
CSD_code = SOQFOU | q = 0 | S = 0 | Stoichiometry = C19H22Cl2O2PdS2 | MND = 4
Pd       -8.41391905533660    9.57864235085660    7.76097932031670
Cl       -9.57404210653536    7.72259510527872    7.28595133550196
Cl       -9.76062283380419    9.95354678674515    9.50804603732927
S        -7.00877981562424    9.09658328356391    5.94193496408543
S        -7.09564444234208   11.47170955853882    8.23657849307366
O        -3.87553434589613    7.88994770801600    8.25004133935036
O        -4.27144303365175   10.14939320057192   10.44551993587680
C        -3.20302520439108    8.00732747035373   10.55869676347295
H        -2.54791078775477    7.45883387316503   11.23525017788344
H        -4.22746405308600    7.66824585180495   10.71600240162633
C        -2.78665194984270    7.67765759342581    9.12561120834313
H        -1.93261495768875    8.30427594047187    8.83206236773978
H        -2.48258059442205    6.62398117809400    9.07120700938533
C        -3.77141348117845    7.40077321257861    6.97571871481301
C        -2.56920781296587    7.02658428315508    6.38428715215881
H        -1.64123001409190    7.10736578401488    6.92738794495227
C        -2.54503650738145    6.55356625709998    5.08353924859250
H        -1.60084175230010    6.27147449952155    4.64313671492338
C        -3.71494140075519    6.44212280818456    4.35469116341409
H        -3.69441664348335    6.07126290321713    3.34222067812346
C        -4.91363776999373    6.80651916769430    4.93900347575592
H        -5.83805429283649    6.72476864152336    4.38711738042885
C        -4.96145163262191    7.27968701463314    6.24243610758930
C        -6.27093354026067    7.66707102788126    6.84071713782717
H        -6.17973163472737    7.91059268167260    7.90620554093814
H        -7.02495701227184    6.88570851583308    6.71316521641542
C        -5.68360180396011   10.34701254502173    6.13744974021629
H        -4.76332128225807    9.90087465140529    5.75570044604464
H        -5.98040463819700   11.17311997641797    5.48952155562810
C        -5.50978699729827   10.81174202179821    7.56738649212093
H        -4.77851825988825   11.62128496366118    7.61779967027543
H        -5.18133042216148    9.99521541008736    8.21311853120611
C        -6.82596767621628   11.13051250770910   10.01981182952101
H        -7.79409450653319   11.34945451110049   10.47517087860961
H        -6.60802766065891   10.06420217767758   10.12788190417803
C        -5.74002503306503   11.98689970610223   10.57517512191914
C        -5.98794601548417   13.31722564050212   10.87732917120985
H        -6.97634666372997   13.71283415822032   10.69749760454041
C        -4.99814901915300   14.12526954343283   11.40699165902481
H        -5.20705581003527   15.15712005997002   11.64146113557913
C        -3.74352849081024   13.59463202800739   11.64204735487285
H        -2.96283437564746   14.20998461711359   12.06297853049075
C        -3.47177329089207   12.27016945803774   11.34222725508908
H        -2.48361790705433   11.88335351047524   11.53421548792987
C        -4.45897134308632   11.45831268047411   10.79618551059056
C        -3.11342571165728    9.49132118445907   10.91078587697194
H        -3.04371497591448    9.60454855497550   12.00110105889170
H        -2.21347144105608    9.92837339545541   10.45535535517144

