66
CSD_code = SOQGEK | q = 1 | S = 0 | Stoichiometry = C26H35N3ORh(1+) | MND = 6
Rh        2.86148536661657    4.95959945414490    5.44300031543958
O         2.77794894841232    2.02230609265615    2.48439102166400
N         2.61047592431461    2.67894349254533    7.59695244817559
N         1.57546783551752    2.40141048343269    5.72661671576487
N         3.48028604591986    3.55240283470443    3.93682991939440
C         2.32012359867961    3.28897944438363    6.42822540063542
C         2.00985024458768    1.44469630831697    7.63325747092121
C         1.37543997357784    1.26100627346453    6.45506173948166
C         3.46068733185284    3.18278144786532    8.68754495125674
C         4.54291380877369    4.11043031431277    8.12489413075293
C         2.56465057661707    3.89251172933034    9.70625597117430
C         4.16764416147940    2.00763350252162    9.37378698280368
C         1.27197876788521    2.55849926109348    4.32591520943119
C         2.56059635216005    2.74492178546813    3.57296725838585
C         4.60738163380258    3.40414632891515    3.02657098917905
C         4.05500370075891    2.41750843206171    1.96913333004808
C         5.85341177666730    2.89265131565483    3.77817652355306
C         5.69172221260297    1.46913428463426    4.23054015457166
C         6.25515461578612    0.42242951999071    3.51036749331703
C         6.05270761053567   -0.88957671945063    3.90254473286124
C         5.27936759325294   -1.17110000354394    5.01556650835984
C         4.72233139914807   -0.13451937346748    5.74498688514163
C         4.93173275118652    1.17595210411042    5.35528923530722
C         3.99017294670415    6.65947577443499    4.71771327886950
C         2.91113660057362    6.51054486686148    3.87712488775928
C         1.68115608823605    7.38520077652960    3.91197855194665
C         0.57460511313070    6.78591816628016    4.79965208324273
C         1.09788650385593    6.02575336657030    5.99387676643196
C         2.13833212827272    6.45028424268721    6.82043806728674
C         2.84200894362524    7.78509997419183    6.69206962960339
C         4.09872520802621    7.70005154484904    5.80588973084315
H         2.06873943530764    0.78983058671236    8.47515860193839
H         0.80637914931043    0.43149414207219    6.09067388648818
H         4.13708008121263    4.82349047639090    7.39431898009354
H         5.32144070258577    3.52282503738484    7.64192047560733
H         4.99657282025589    4.67145990767447    8.93668007514663
H         1.81823911412952    3.20367118228726   10.09576462970932
H         2.04501151987504    4.73318977082980    9.25685633330687
H         3.16137321166259    4.25509812792618   10.53778849590848
H         3.49109748767816    1.42820551992659    9.99568902027254
H         4.94826809283497    2.39868556748576   10.02045544339114
H         4.63357860106070    1.35092156660845    8.64228470925605
H         0.75916558818036    1.67096139660798    3.95204057538867
H         0.63534229490215    3.44021749255013    4.16856744144797
H         4.84769438503978    4.37665251553906    2.58508947157988
H         3.90059888679237    2.87999553054041    0.99143945509062
H         4.66883029204312    1.52209222631472    1.85898374770970
H         6.71300930476896    2.98163096752272    3.11325622951045
H         6.00798065517501    3.54903494429424    4.63870155968638
H         6.86939216599496    0.63479990695362    2.64649343373133
H         6.49896555207157   -1.69325653430644    3.33698738271397
H         5.11805839336246   -2.19405592882326    5.31842779130059
H         4.12501867373186   -0.34992708086310    6.61920890082805
H         4.51290752726684    1.99189114011309    5.92636232939428
H         4.95398283838232    6.25885146417792    4.39428318893650
H         3.06137354921706    5.98865163495422    2.93299668846847
H         1.29264449225821    7.49400024129198    2.89825650491323
H         1.95509560375234    8.38032201218469    4.25932055531618
H        -0.03988801977143    6.10917175248706    4.19914431197876
H        -0.08833763892424    7.58036965881434    5.15609641649755
H         0.36295952219973    5.34358281813845    6.42542354445525
H         2.12655499648077    6.06743323241831    7.83653857115827
H         3.14132171183712    8.12240022404327    7.68515910057262
H         2.14189563981144    8.52332957147105    6.30233685951160
H         4.96058200893288    7.45455888233288    6.43064932906189
H         4.30098559801613    8.67324302039918    5.34862757602345

