29
CSD_code = SOQHAI | q = 0 | S = 0 | Stoichiometry = C8H14Br2N4Pt | MND = 6
C         1.91306581955505    7.78343275982406    2.29572992886351
H         0.91344760657003    7.54434430170017    1.93480133250846
H         2.51685120381365    8.15867567004429    1.46579485721017
H         1.83996683542510    8.56017240930747    3.05653066180219
C         1.84302600644884    6.29826021523818    4.81221453578265
H         2.28847899512668    7.05605002265968    5.45555890914500
H         1.88973177282067    5.32748415068156    5.31174260140645
H         0.79839114272363    6.55232695801095    4.63420158999752
C         4.31266744765173    4.92644991830776   -0.94201004877127
H         4.06596981470324    4.36447481435553   -1.81943044389055
C         5.43628100560012    5.65439033265027   -0.61793506884992
H         6.31531732704296    5.80322230262809   -1.20883285826449
C         5.17977681963507    6.16329289927900    0.65709000042498
H         5.80403925226540    6.78965237767072    1.26386259330518
C         5.76114533076299    3.27105023124605    4.72685171597107
H         6.70562419287978    3.19090757712430    5.22495192998681
C         4.87694373579343    2.30532131382010    4.29921598206561
H         4.97044814523968    1.24358105127927    4.38841232072756
C         3.82150565295664    3.01440389318095    3.72145859646402
H         2.92567280165335    2.63090050188346    3.27357356477413
N         3.98654210181031    5.76909345480198    1.07229663569092
N         3.47230732770925    5.02290084132868    0.09668884828419
H         2.54918860560437    4.61458930648748    0.21457717928379
N         4.05379678484007    4.31524207632818    3.79487016420457
N         5.22892808814422    4.45741100784084    4.40477341304985
H         5.59719221560857    5.39066007926916    4.56674129396258
Br        1.05601601671834    4.61374181943828    2.20462487336916
Br        4.70400663974201    7.59913097525077    3.85518987197684
Pt        2.87247131112915    6.11293673835757    3.03405501950910

