43
CSD_code = SOQHOW | q = 0 | S = 0 | Stoichiometry = C18H18Br2N4Pt | MND = 6
C         3.20829830417163   12.53028134135844   -0.57135288428319
H         3.91177462289124   12.91925494780345    0.16410669227878
H         2.35665196600750   12.07780219874572   -0.05694581965942
H         2.84619209331237   13.35070927643464   -1.19105179323304
C         3.27057264510395    9.42456847110586    0.90381382013823
H         3.89519207709373   10.19919944902330    1.33018380072863
C         1.91984399926573    7.63067813882837    1.23011077102343
C         1.26157468338624    6.73228263053729    2.09157782273962
H         1.39608306599652    6.85138516727178    3.15457953477017
C         0.47518481249244    5.74619329848700    1.56175412210715
H        -0.03565351926422    5.05477014439950    2.21527569070421
C         0.31309020822197    5.61304490202954    0.17052701167019
H        -0.31874374489294    4.82562683698877   -0.21183719404693
C         0.94142062993546    6.46799106358431   -0.69140926772027
H         0.81991317125643    6.38091239926568   -1.76109552106320
C         1.75674517886068    7.49497305764988   -0.17642507188670
C         2.43147216277979    8.44045377854010   -0.96943412419291
H         2.33617568365227    8.40387106675691   -2.04890526752237
N         3.16876212267734    9.39257402719747   -0.44529311519541
N         2.69767116671805    8.61162004295415    1.73228193403646
Br        6.14083454162087   11.02260349350015   -0.33107912352355
Pt        4.08142685216462   11.06258422883248   -1.72939691829191
C         4.95493793916677   12.52951527247650   -2.88856178023704
H         4.25322853974444   12.91387711940403   -3.62819703883151
H         5.81049278372220   12.07881441433913   -3.39802733514205
H         5.31149963241191   13.35313284295944   -2.26984108451101
C         4.89397240269021    9.42567988245451   -4.36359485310431
H         4.26988886556192   10.20066739796447   -4.79011051181170
C         6.24430320579904    7.63141492304380   -4.68967850686872
C         6.90306263796319    6.73327736470435   -5.55106402209416
H         6.76954109882415    6.85302402635174   -6.61411856063312
C         7.68872865841954    5.74668180258825   -5.02110118635398
H         8.20003947012618    5.05552525244186   -5.67454346939053
C         7.84945092901619    5.61265208185741   -3.62980527274535
H         8.48065593307518    4.82479179970496   -3.24730391703184
C         7.22060174463586    6.46731314343724   -2.76795068681657
H         7.34105213456141    6.37951724870214   -1.69820609921319
C         6.40618325639968    7.49496455958049   -3.28306969194442
C         5.73144600507705    8.44055842386425   -2.49014977344427
H         5.82597844932789    8.40352379366512   -1.41061866830925
N         4.99495624575639    9.39326376616966   -3.01440767675936
N         5.46719190979708    8.61286490272132   -5.19198307817423
Br        2.02360543447360   11.02246002027110   -3.13225188615813

