51
CSD_code = SOQKEQ | q = 0 | S = 0 | Stoichiometry = C14H21B10ClN2O2Pd | MND = 4
Pd        8.76849849732641    2.39865294402610   11.03726147229140
Cl        8.64102144780515    3.69035791721010   13.04980135045587
O         4.57969220429596    2.49060436453198    9.85938905985635
H         4.17385220870228    1.61796443804641    9.91266652239885
N         9.54236307069741    0.94442466775635   12.03189897785226
O         6.64746329200938   -1.16793282794507   12.34368092318513
H         5.80703930841278   -1.27202765053317   11.88356086412546
N         7.91139830511308    3.82966234397323   10.07801852702013
C         7.33541227298917   -0.05394599828817   11.81949594688277
H         6.86985774724643    0.86940191304203   12.23722626276471
C         8.74979787944382   -0.07421527291947   12.38014816032329
C         5.95364081530790    2.38931064441471   10.16141020010824
H         6.05935109979896    2.29600636698527   11.26770376366840
C         9.17926981383036   -1.07256387393599   13.23854481427898
H         8.50414418708795   -1.87105004109396   13.49580938643894
C         8.53298443592301    4.98192671070607    9.83889664551081
H         9.58923274592025    5.01751871014727   10.08754851767083
C         6.52031448114548    5.97212284997857    9.03177702622453
H         5.97350726448621    6.80884296334827    8.62594027515718
C        10.46506089270480   -1.00918297179522   13.74996866074151
H        10.82217706986430   -1.77248595575318   14.42346963074782
C        11.27777316396297    0.05486519473774   13.38704543320682
H        12.28100713265117    0.14598755041261   13.77075208824032
C         7.87351195310474    6.07915961802016    9.31774347838923
H         8.40850312588530    6.99896973771321    9.14525483557087
B         8.80349020735427    0.33542596085046    7.96557520358942
H         9.82944738857093    0.55870584253182    7.44028282172153
C         5.87701282176946    4.77166632660580    9.28451785640380
H         4.82619912481255    4.63843434966526    9.09061682543365
B         8.36143193228621    1.12845148934806    9.50257438704898
B         7.30029907248036    0.02498861176370    7.02203856084118
H         7.28221134033129    0.06778479612925    5.84855704630056
C        10.77747420528407    1.01076140437753   12.52310074293377
H        11.37033469911221    1.86683937733835   12.21583862893508
C         7.33349663058129   -0.02410221399385   10.27839447918716
C         6.60625130093870    3.71855271952457    9.81109874979103
B         7.47973212227358    1.49726288635083    7.98673888571083
H         7.50215480528467    2.60041922877395    7.57779832172723
C         6.63611958783184    1.20992549173522    9.44104145638498
B         5.93731682456152    0.63022175158003    7.97754012808539
H         4.97180100790611    1.16943239035618    7.58450463617948
B         7.14801261742652   -1.51213702398723    9.43158915927323
H         7.04079741932172   -2.49135990461428   10.06956094923098
B         5.84875774864030   -0.31230688624043    9.47199868681798
H         4.87822381207176   -0.40545204592154   10.14279229060863
B         8.68352579182810   -0.63300178003987    9.43185870133171
H         9.57487504368012   -1.06713261788459   10.06565198972887
B         6.26637841101662   -1.10810783019494    7.95164318618212
H         5.53158079489932   -1.86962885744107    7.44135672230010
B         8.04922009734052   -1.30042192768029    7.92139116373602
H         8.57058077668225   -2.21199588171628    7.39562559740822

