82
CSD_code = SOQLOZ | q = 0 | S = 0 | Stoichiometry = C35H41FeNP2Si2 | MND = 8
Fe        4.56422366856745    1.15260609138986    0.69269740091936
P         4.76407632667781    2.80038106278661   -0.66951851341542
P         5.11537420104910    2.06265273403227    2.56785801787657
Si        1.87761939049106    2.17310345842687   -0.46312421894016
Si        2.17768815184101    1.62348133365533    2.58252357840066
N         2.70639929928591    1.80780705486414    0.97720129666836
C         3.26695975672201    2.66789638909345   -1.69637422550824
C         3.63143250950883    2.38939547430516    3.58064042521677
C         0.70871276734612    3.68270124308117   -0.37906946904589
C         0.83476703518740    0.73337426759583   -1.16273076730684
C         0.59998269257588    2.61127251480584    2.98434325251134
C         1.85279790625407   -0.15138636034112    3.21447609815350
C         4.66809984665208    4.54584318542385   -0.14141362359974
C         5.36519765346692    5.59099822388808   -0.73491915018176
C         5.25597027320529    6.87357444132944   -0.22489223643039
C         4.45738466599134    7.12285950723628    0.87738714247064
C         3.75783879016048    6.08348554288931    1.47028441555799
C         3.86688827434669    4.80246317055761    0.96571768013556
C         6.13327409643872    2.87592106031065   -1.88548122347437
C         5.96099370851362    3.37423845322034   -3.17238592844833
C         7.02537267064857    3.41828221974230   -4.05589524935155
C         8.27479894493993    2.96688036626154   -3.66465975722724
C         8.45525715079294    2.46160414890391   -2.38727392574986
C         7.38969741509509    2.41316930546710   -1.50746364326391
C         6.10608176927633    3.59117806312607    2.77865594597076
C         6.91703345744580    4.01018857538007    1.73464859369587
C         7.68966197743988    5.14992999171764    1.85106500353321
C         7.66010367220146    5.88181362410207    3.02612731243980
C         6.87000414182271    5.45924650920694    4.08256542166050
C         6.10010317709649    4.31648160658805    3.96412622577211
C         6.14465105866760    0.99424442413932    3.63749689682379
C         5.59549149342091    0.08705044597476    4.53649352576747
C         6.41154448126077   -0.74921685930163    5.27767040762138
C         7.78647258964275   -0.69768596587194    5.12322793757177
C         8.34245616782041    0.19071130773033    4.21703084691960
C         7.52714802959937    1.02600167310531    3.47706048569279
C         4.86168992526820   -0.79074028363896    1.41276697499331
C         6.02008668992035   -0.35282814312293    0.70994776242379
C         5.64025939282452   -0.09809116987610   -0.61666548999032
C         4.25008439476591   -0.34218226619394   -0.73575542394989
C         3.78603118302543   -0.79310929762243    0.51359600760460
H         3.05319851099877    3.60121011627425   -2.21538215274393
H         3.44068201759465    1.88415529274949   -2.43114867818704
H         3.74179485550831    2.00405234807900    4.59108379619573
H         3.49732353931351    3.46811445047454    3.64119926327334
H         1.21433846690679    4.57137665722929   -0.01715604361376
H         0.29988019032658    3.90817461901814   -1.35901012247234
H        -0.12459810872657    3.47989381579418    0.28120998461860
H        -0.00405025274536    0.55221406753717   -0.50018154140390
H         0.43358842663892    0.96331526133925   -2.14419960394945
H         1.39440873438517   -0.19088434821851   -1.23769900944622
H         0.36819835549526    2.56713568055761    4.04273020385720
H         0.68733176930191    3.65310355935004    2.70239712254524
H        -0.24062063096819    2.19169064453458    2.44605449916246
H         1.07281375968356   -0.61866976436939    2.62271888465944
H         2.73273482659084   -0.77994377879442    3.15640338262498
H         1.51393287487801   -0.14392090381543    4.24640326360330
H         6.00303374455880    5.40832148915341   -1.58809084698143
H         5.80345654670362    7.68196378296560   -0.68837320217262
H         4.38282903286272    8.12439660949656    1.27527516606990
H         3.13412275902663    6.27541596028649    2.33174893347912
H         3.33696024984820    3.97124215785214    1.40629165101703
H         4.99008372725603    3.73065932660191   -3.48452732212724
H         6.87995006930690    3.80697923222163   -5.05375178882700
H         9.10420296935438    3.00299972319784   -4.35565531280812
H         9.42628551414567    2.09989351886671   -2.08095776093480
H         7.51589753836217    1.99166930467692   -0.51881540055053
H         6.91646523123530    3.42985357117283    0.82288338214812
H         8.30974008674167    5.46970433203214    1.02615936101653
H         8.25513351803543    6.77825777100094    3.12146194707193
H         6.85630375322585    6.02359703159125    5.00410997911460
H         5.49532690870183    3.98529551641908    4.79621170433270
H         4.52303686345851    0.02689883837805    4.65333616263619
H         5.97272209476962   -1.44716211287559    5.97670804116956
H         8.42200609960390   -1.35034269591313    5.70346739329350
H         9.41462669393344    0.22964693524231    4.08744718377672
H         7.95906037617226    1.71872548648871    2.76766483121867
H         4.86125456864548   -1.18340514206574    2.41340007904720
H         7.02311956820353   -0.34757596595220    1.10066288202759
H         6.29751820141581    0.14721223139447   -1.43237429042149
H         3.69204551992311   -0.33465246102667   -1.65337503758509
H         2.77985023207199   -1.09580928329626    0.73148320573981

