87
CSD_code = SOQPOF | q = 0 | S = 0 | Stoichiometry = C35H48FIrN2 | MND = 6
Ir       38.73904712665338   25.21585175458844    3.40652520488125
F        36.89826667927071   25.08373220996495    2.71108400143615
N        38.55175020000558   28.29821556743977    3.60800121647099
N        38.29511801174532   27.59637851318858    1.59545635218805
C        38.61870828920575   27.17633558132716    2.84448764948024
C        38.20650613042051   29.38775411060175    2.84506596293030
C        38.04426846890099   28.94364628679339    1.58084386500884
C        38.82121520755691   28.40084937835995    4.99845783056609
C        37.89381389956105   27.90281645708945    5.92158109978722
C        38.17460195150254   28.06122392414184    7.27148659107462
C        39.33439741709524   28.68564316976090    7.69114299808005
C        40.23998490672963   29.16500646764209    6.76605477863759
C        40.00147474608355   29.03054466460927    5.40438862591570
C        36.61426265627974   27.25545487019345    5.45001350264844
C        35.58005696310074   28.34056403983558    5.13236866674419
C        36.03649959962102   26.25210304622681    6.44452877625045
C        41.01622151016313   29.54537510634360    4.40775776804398
C        41.13651040881016   31.06846216139063    4.50547603620768
C        42.37962521111262   28.88294314609642    4.61985488914604
C        38.19398757317122   26.77496500163657    0.43968613979224
C        39.36707354398797   26.33025397745119   -0.17946188919358
C        39.25261768831375   25.54787306322811   -1.31893716542793
C        38.01081426204279   25.22222872821973   -1.83079488826924
C        36.86511069170896   25.69595533772002   -1.22445875290790
C        36.93042389052751   26.48277814342864   -0.08174063336982
C        40.72080803871008   26.77644073837734    0.32395709335541
C        41.12289221053518   28.06521979981910   -0.40250361160413
C        41.80084061471507   25.70960731415625    0.15553234535064
C        35.66104759229291   27.03053697981018    0.52649732037374
C        35.08058340027002   28.11765149550216   -0.38409008544876
C        34.62690979257678   25.93262775244413    0.77297281993430
C        38.85404889171996   23.07625011178969    3.18551231524240
C        38.43778241502736   23.34429444761268    4.47067984225968
C        39.31975254713637   23.20558663514638    5.68774747502167
C        40.02180924763968   24.52892451471033    6.04232989518640
C        40.25808277373466   25.42418595585438    4.84628573701092
C        40.83686163508978   25.00328246531444    3.63629135706947
C        41.33340574915487   23.58762488585177    3.41260315762651
C        40.25546656040313   22.67481303591351    2.79897862820784
H        38.10513988290415   30.36665631138585    3.26632127544383
H        37.77937964753650   29.46482770193387    0.68447844312007
H        37.47929350323965   27.69561106574990    8.00913286520518
H        39.53299866855502   28.79844612325402    8.74683295408758
H        41.14319276537497   29.64722567548041    7.10642316220810
H        36.82962726803041   26.69915260845353    4.53265210243157
H        35.95064786692711   29.02496677690200    4.37234113482816
H        35.34447842440502   28.91544030870645    6.02716307521145
H        34.66654035968437   27.88228761728487    4.76220486990232
H        35.61345518648843   26.74434047400381    7.31767357825055
H        36.80317117158162   25.55213204437302    6.76453030058956
H        35.24416359979119   25.68830146163749    5.95893735453935
H        40.68653133729518   29.29564840324344    3.39512297981535
H        41.50361602593430   31.36503889125112    5.48470552715009
H        40.17000169601008   31.54205344865461    4.34716957093198
H        41.82851573457293   31.43907540222279    3.75258315132416
H        42.29037075616511   27.80111371258755    4.55573155566929
H        42.79385390065573   29.13678286476394    5.59201041779980
H        43.07638095469854   29.21812622181186    3.85441600619908
H        40.13937335066768   25.19326264840882   -1.81938273399861
H        37.93823122424750   24.60718713207763   -2.71603416762937
H        35.90361510311298   25.45138513350910   -1.64763225216837
H        40.63602642666752   26.99523807319387    1.39165097366683
H        40.39254727706704   28.85249463756951   -0.22639500420761
H        41.18614466359697   27.89107476204680   -1.47489877680798
H        42.09303499375862   28.41001652275809   -0.04994983623135
H        42.07946036320459   25.58596430268496   -0.88810653179697
H        41.44812032763203   24.75795756582587    0.54198288348337
H        42.69424419492286   25.99861330996207    0.70572375176931
H        35.89413355611949   27.47160607789562    1.49826156880857
H        34.19361460797057   28.55234020581901    0.07158691106881
H        34.80134102300257   27.69765880870199   -1.34772960537786
H        35.80181857903568   28.91358542049816   -0.55930977212954
H        35.06455068081949   25.16412192158219    1.40037633338277
H        34.28623595505706   25.48307924834555   -0.15590157637143
H        33.76367169272325   26.35169484307491    1.28557598400749
H        40.05687033291392   22.42066882356973    5.50969664739034
H        38.71174727260797   22.88713168294850    6.53769726250572
H        39.40333091380473   25.08681305523510    6.75002286571189
H        40.97595355306880   24.32675958879919    6.54326551993721
H        42.19623902042152   23.61150976596915    2.74286657838354
H        41.68164608520529   23.17660920379154    4.36213262933411
H        40.32783414992974   22.71876948023369    1.70969740581346
H        40.43306780599441   21.63357411640582    3.09169058826411
H        38.09755460085966   22.82300620155005    2.44702992710008
H        37.36975903118169   23.31696823107930    4.66750208179478
H        40.44394502275994   26.45148173530682    5.14927861790581
H        41.41018093921079   25.74999954788111    3.09340848598111

