63
CSD_code = SOQPIZ | q = 0 | S = 0 | Stoichiometry = C23H36FN2Rh | MND = 6
Rh        9.40520841407778    9.51074689466531    2.62616546986503
F         9.59724906226184   11.16106577002486    1.58870974601927
N         9.43178562003632   11.40379680693949    4.96142049968581
N        11.43508684539968   10.88722370408405    4.37010846238045
C        10.13883279742975   10.60702303784187    4.13731639896442
C        10.28053782255675   12.17382527474620    5.71193706934220
C        11.54047346930465   11.84865464729104    5.34015001620324
C         7.99038566977024   11.50185182084684    4.91825224785701
C         7.56123690218306   12.84073386029606    4.31533550276500
C         6.04123112540889   12.89260615981139    4.20556725840562
C         5.39475977979605   12.67657236339640    5.57122536561627
C         5.83818773588135   11.34447965091771    6.16975539961240
C         7.35841022712006   11.29490031517666    6.29325510191326
C        12.51500394228621   10.33963722109651    3.58059287262009
C        13.58228410501420    9.67653739043284    4.44913208158967
C        14.66207377745665    9.06779195513252    3.55906231993624
C        15.28485799549310   10.13823976430280    2.66717692750258
C        14.21504869239114   10.81063265907037    1.81121000459657
C        13.12832420248959   11.42113857820875    2.68938557351965
C         8.59073231559417    7.94258494904564    3.77724461639750
C         9.92802332841795    7.66543647236735    3.46621618031346
C        10.37427351842308    6.68510570621058    2.40270205656995
C         9.65673026086581    6.88072950015843    1.05308622472489
C         9.23652642349908    8.31740659125396    0.83643961829145
C         7.99329477263668    8.80545319939180    1.18264023097568
C         6.91310493736923    8.00054194284018    1.86857134740928
C         7.42313006721983    7.24152086320355    3.10991696012249
H         9.93888674781736   12.88170953525325    6.43823922724542
H        12.47925456037555   12.22572291337914    5.68925361999245
H         7.66327699005590   10.70049201030050    4.23374468131020
H         7.91597699411303   13.66106126430601    4.94414581240903
H         8.01701515582750   12.93943520901671    3.32871486035603
H         5.70637848683065   12.11461461088704    3.51680024314185
H         5.73448578752093   13.85638384353242    3.79594351529621
H         5.68336667101680   13.48901820890807    6.24253592137785
H         4.30755496717274   12.69487224385080    5.47497909672298
H         5.50270693418463   10.52848872556631    5.52607215189050
H         5.38303488480113   11.20566634535917    7.15247961539981
H         7.69125315176866   12.07992426372547    6.97614157658129
H         7.67476686091531   10.33339379395387    6.70448063616349
H        12.04568703362169    9.58621659658813    2.92567957774228
H        13.12472418706147    8.90438486806010    5.07223787706431
H        14.03523235149364   10.41901453145638    5.11020886010958
H        15.43138836719634    8.60171248130723    4.17803193402509
H        14.21754113556230    8.29007741890059    2.93434234607211
H        15.77600815209153   10.88872946147913    3.29134688600208
H        16.04571356784135    9.68864931137861    2.02642598262157
H        13.76318326511787   10.07247346582278    1.14600824397035
H        14.66659198484064   11.58716557752899    1.19166209793306
H        13.55391846269574   12.21468660057099    3.30850072732278
H        12.33785971532846   11.85010414124929    2.07161515976694
H        10.22336864069890    5.66069377559793    2.76370532453111
H        11.45020601465614    6.81528365796047    2.25464357800144
H        10.32961564166777    6.57738982123781    0.24778567950641
H         8.77651903486653    6.23847608252418    0.99490822009121
H         6.11887192111455    8.68752700928275    2.17281103388257
H         6.47301549993798    7.29687718878844    1.15286279914660
H         7.72347884508291    6.22797192477430    2.83841412768319
H         6.60386810469730    7.14929151188949    3.82703066949595
H         8.38686831718906    8.26262834866566    4.79934616452292
H        10.65284484882167    7.76386703718045    4.27628839653481
H         9.80005001835858    8.86050591714433    0.07803572706744
H         7.63089288728359    9.69155320382683    0.66140207581226

