49
CSD_code = SOQQEW | q = 0 | S = 0 | Stoichiometry = C17H28FIrN2 | MND = 6
Ir       -2.60691454040569    2.69697773594951    2.81262269365164
F        -2.59660498048613    2.28213223653901    4.74829316623100
N        -4.92790100809659    4.50518117536213    3.58405954691931
N        -5.62485198898645    2.50432265130320    3.21415253178496
C        -4.52809517845446    3.29040096592378    3.14909360278096
C        -6.25516113743142    4.47658643348768    3.91847523091211
C        -6.69313991327738    3.21831200229219    3.68655672693037
C        -4.03181630563524    5.62430158711925    3.78869904131010
C        -4.57668598212191    6.88976319993666    3.13355967370335
C        -3.77664421039441    5.80316112529083    5.28352932298709
C        -5.60892512741702    1.07802040395113    2.96180583085305
C        -6.76684857054918    0.66556987806765    2.05835411809295
C        -5.61109120207401    0.33041307700945    4.29343426479376
C        -2.30781501158255    3.69137499234462    0.97466781706926
C        -2.84340529655539    2.40811499313982    0.74898713315119
C        -2.03741418566907    1.22942714978200    0.24652252628683
C        -0.73804920751648    0.99570837178317    1.04094133632323
C        -0.83981944168331    1.49102911206952    2.46531158773497
C        -0.46017632589541    2.75887867365687    2.85626095993445
C         0.04781625906987    3.82987805767208    1.92078265367481
C        -0.85826616349386    4.03684215238114    0.69110512415362
H        -6.78290605697402    5.33040877512717    4.28897177014333
H        -7.66589601319567    2.79384955483985    3.82156518174499
H        -3.08871362787490    5.33480657019294    3.30891199071378
H        -5.47540031612466    7.23795138518277    3.63727467847998
H        -4.81247255352621    6.70408487934990    2.08804361663493
H        -3.83134785797755    7.67838727243763    3.18522424515891
H        -3.37894116738333    4.87639077828978    5.68947331055429
H        -4.69618126423335    6.05352803494042    5.80833565042291
H        -3.05324779750475    6.59669838620907    5.44751070608398
H        -4.65539420811603    0.88013876364286    2.45715861085296
H        -6.78411848984700    1.27701464358513    1.15879036253772
H        -7.72108161868060    0.76895444853248    2.56965249471286
H        -6.64995915261275   -0.37447596314962    1.76709321345615
H        -6.52159999962856    0.53545352826191    4.85260256994705
H        -4.75481886409001    0.65148019366081    4.88126146850933
H        -5.53798821153327   -0.73973071921114    4.12248852577359
H        -2.98990916237411    4.52783972212735    0.83150890814380
H        -3.88295484561431    2.36539909739583    0.42217907100658
H        -1.80747262722026    1.36615627578867   -0.81667937927072
H        -2.66534494750261    0.33832397724129    0.32414421743080
H        -0.51562405057317   -0.07351855490410    1.04782998374428
H         0.09927882982442    1.49431546342907    0.54973957957564
H        -0.86511140831105    0.71623289693594    3.22669108220910
H        -0.18359529470922    2.90670213373642    3.89735456659381
H         1.06572928008353    3.58239280770331    1.59934500146153
H         0.10682183476631    4.76628077761343    2.47995573841096
H        -0.50353441899149    3.43323347775674   -0.14623398129222
H        -0.79330647142418    5.08190541821627    0.37979192697698

