66
CSD_code = SOQQOG | q = 0 | S = 0 | Stoichiometry = C24H36F3N2Rh | MND = 6
Rh        3.48280997416534    1.37027022888739    2.79540948163365
F         3.07020254105256    3.40042493551932    0.96918318745209
F         2.07295687099059    1.63811443523649    0.21582585327027
F         4.19541887089606    1.84242775307792   -0.01446957917394
N         0.49009328956785    1.95927223605334    3.04446382307341
N         0.86744522674880   -0.08637530178829    2.50001307262967
C         1.47661402378093    1.07182805441606    2.82043287672808
C        -0.49164501588207    0.07333027239615    2.52772956004933
C        -0.72941533152563    1.36054059253921    2.87100273912109
C         0.72146811106581    3.35385770573155    3.34873146091748
C         0.14298985982049    4.26023136848703    2.26184515531467
C         0.49056062180892    5.71234345872321    2.57155910880221
C        -0.04697351861396    6.11327592269274    3.94250847870634
C         0.50045296622570    5.18868974206260    5.02620511244162
C         0.15198585433118    3.73599591948269    4.71549209814629
C         1.58612970649614   -1.28082518248551    2.11652240790661
C         1.28514407814832   -1.67318367061167    0.66988441209133
C         2.14257976378310   -2.87276963553567    0.27938464149173
C         1.88128940902710   -4.04778302434562    1.21797776615193
C         2.14631096441375   -3.64894545928782    2.66712493513753
C         1.28808281245371   -2.44893665868365    3.05661233752467
C         3.20182607155551    2.02462169490091    0.91402641181996
C         3.88685066332317    0.28942647781104    4.65906905669245
C         3.63614923012514    1.61844995636283    4.92887195110923
C         4.68124780100348    2.67240243113679    5.20811097806693
C         5.88659251362983    2.62301355915641    4.24975974496600
C         5.49773515282520    2.17432887018845    2.85845743449870
C         5.54673568938301    0.86021630784856    2.43715583563216
C         5.94058834424301   -0.31842336556011    3.29753284869933
C         5.26335858230126   -0.33344509400174    4.68096042831502
H        -1.17724476951448   -0.71739487411121    2.30496561992505
H        -1.65687477348200    1.87866989273484    2.99824710274030
H         1.81667272116584    3.47667963076973    3.36032921356901
H         0.55832352491436    3.97377249542013    1.29574928458816
H        -0.94215659129949    4.14134544452816    2.21787650504983
H         0.07110294111609    6.36234720595757    1.80224313335883
H         1.57549932161340    5.82827608799790    2.55232122924096
H         0.23097386644794    7.14537780396669    4.16326223065515
H        -1.13829575163001    6.05641554634162    3.93593169396862
H         0.08991306974305    5.46706874095663    5.99892990644089
H         1.58615541013741    5.29462489462722    5.07718543630366
H         0.55826050658219    3.07664403720893    5.48632309157280
H        -0.93378144192867    3.61455526629310    4.70886054995689
H         2.65629553766828   -1.01160088310413    2.19127615693098
H         0.22788601316857   -1.92834241035614    0.56745998097429
H         1.49627025682501   -0.82638414562561    0.01657940766339
H         3.19625845144114   -2.59132934557522    0.33036353825002
H         1.92371597844345   -3.16205270652776   -0.74957842867080
H         0.84215821826403   -4.36964180840867    1.11562567274750
H         2.51883303798854   -4.89043811384054    0.94453458483019
H         3.20054414263840   -3.38924568703989    2.78503213636756
H         1.93116891758208   -4.48837348866452    3.33128446414932
H         0.23149207014381   -2.71793587278524    2.98713082989755
H         1.49319997821651   -2.15672199502634    4.08899357559998
H         3.07121655297691   -0.41286409782198    4.82299668448399
H         2.65132178399700    1.87484709894148    5.32096954458354
H         5.02492759940406    2.57704128561882    6.24470267098490
H         4.20197360981101    3.65161839774682    5.11814217427221
H         6.32421519590827    3.62185067623291    4.19254117934128
H         6.65720637524123    1.95696453753507    4.63991998527536
H         5.55011075737362    2.95251768221277    2.09833127291845
H         5.66983024027962    0.66720480156847    1.37254576530980
H         7.02973688863408   -0.32778253442292    3.41600615763310
H         5.67007148026993   -1.23214382847025    2.76101601701208
H         5.17939327070826   -1.36955866043853    5.01743525617219
H         5.88044048200551    0.19031439514974    5.41218275668776

