52
CSD_code = SOQQIA | q = 0 | S = 0 | Stoichiometry = C18H28F3IrN2 | MND = 6
Ir        6.87282362224833   10.92603659574486    5.91238531242937
F         9.62325386037862   10.92608656736155    4.75528333729080
F         8.21003353273768    9.84726686822334    3.54713831425666
N         4.95447759095093    9.85126605461732    3.75353492932235
C         5.48724782324214   10.92601730848017    4.37571785339343
C         4.10027296483933   10.25001835066055    2.76152446032767
C         5.25237007078284    8.47142739260901    4.08204968993780
C         5.83491629532319    7.74535238157599    2.87296961584536
C         3.99921313830807    7.77013079004136    4.60369263486902
C         8.29241821707324   10.92607830295751    4.40918010802927
C         8.28183356449415   10.23098457736026    7.37312911305843
C         7.67095324618811    9.41468359397477    8.48845944629949
C         6.12458834551989    9.40649135909786    8.49792768550023
C         5.48906461442394   10.22953905033778    7.40146958680440
H         3.56685531788600    9.56287641421331    2.13886119823394
H         6.01042917531986    8.51320116278936    4.87460491759149
H         6.70901513446771    8.27535827016913    2.50791784732639
H         5.10461612081119    7.67091306056930    2.07043229325345
H         6.13525652023817    6.74175878541495    3.15944743280133
H         3.24529988177682    7.69322583399350    3.82322654006185
H         3.57298517527047    8.31709425582296    5.44149883290527
H         4.25093983402857    6.76777090567892    4.93773351057003
H         8.02908145923555    8.38828140425397    8.40317762127457
H         8.03848199333325    9.80531619116726    9.44247304306530
H         5.76439363754590    9.77938700229869    9.46241767295914
H         5.77550577174388    8.37731020580196    8.40239179366667
H         9.08971726640031    9.72582272125679    6.85011558321406
H         4.64497013361242    9.73636296779122    6.92315858089346
F         8.21000878646098   12.00492255630155    3.54718215592724
N         4.95452388139844   12.00073827195141    3.75344354008317
C         4.10027842946163   11.60193977766406    2.76148562425896
C         5.25236688453648   13.38059154121380    4.08194063153734
C         5.83484324306250   14.10671376613195    2.87285778915656
C         3.99917501822621   14.08180473627914    4.60361670955267
H         3.56686549409322   12.28905141904936    2.13878543275343
H         6.01044372482311   13.33885629516105    4.87448081463567
H         6.70896851872292   13.57676364537804    2.50778882894930
H         5.10452428292180   14.18111752434642    2.07033460355972
H         6.13512827575475   15.11032278225245    3.15934041631444
H         3.24524615893406   14.15867792171850    3.82316234319487
H         3.57298849885960   13.53480000378126    5.44141731183569
H         4.25084624163534   15.08417330164698    4.93767218816517
C         8.28189827340481   11.62091026982757    7.37320771182445
C         7.67103748898543   12.43714297133860    8.48859804577705
C         6.12467106406939   12.44557703554311    8.49792178884371
C         5.48910714563524   11.62255781193700    7.40146493702226
H         8.02932536519830   13.46350472821994    8.40349796699362
H         8.03841444447520   12.04631848552833    9.44259124276813
H         5.76433220036979   12.07280422111522    9.46240650056574
H         5.77575374365205   13.47480493218206    8.40228503961850
H         9.08980713402595   12.12606892975570    6.85023482114855
H         4.64503139311300   12.11577869741198    6.92316460033236

