87
CSD_code = SOQQUM | q = 0 | S = 0 | Stoichiometry = C35H48FN2Rh | MND = 6
Rh        4.48716072558281   10.55287853409063    2.73003815093648
F         3.21638558558685    9.61539443141168    1.58603613437974
N         5.64211579205154    7.81067075259068    3.61503312047134
N         3.57933026509371    8.10061732973186    4.12649727472023
C         4.66577454815742    8.74814062127455    3.64349260134505
C         5.17115857422703    6.60329080076321    4.07264191558232
C         3.87222470843613    6.78853426165963    4.39188102742735
C         7.00521487915542    8.02551889022497    3.27808966848467
C         7.40371401937815    7.97608971013537    1.94117152859164
C         8.74520923224393    8.19305894446688    1.65162877393106
C         9.66142661614699    8.42256761354117    2.65896160135532
C         9.25276172078546    8.44481856185331    3.97901254697622
C         7.91888992568582    8.25528775275554    4.31261409734039
C         6.41149879257988    7.72350728731576    0.83352002415086
C         6.88864262587637    6.62132703792539   -0.11416238720602
C         6.15236710007472    9.03003918539432    0.08224580979631
C         7.48459051673299    8.28572578124009    5.76064826552346
C         8.01115110576040    7.04716473325299    6.49090820137596
C         7.95034099322494    9.56236597194504    6.46346579509721
C         2.31796375509383    8.70373567529380    4.39066274914757
C         2.20084547694882    9.53874807284474    5.51031109339378
C         0.97276803845207   10.13202932405530    5.76201268683259
C        -0.11034624174833    9.89178457248682    4.93749069381547
C         0.00895537684217    9.02245046875759    3.87276206013470
C         1.21924097909575    8.40622141332106    3.57956295838113
C         3.35018648055025    9.68808979808812    6.48295775654921
C         3.29410166653967    8.53961919651985    7.49769297672980
C         3.35852294184094   11.03033882271664    7.21189514276054
C         1.29722180875516    7.39827633542767    2.45788541826427
C         0.59416320164160    6.10649021227788    2.88913491745961
C         0.68688290586041    7.92593275772435    1.16024512332516
C         6.33553963484482   11.41408109769293    3.23099509183014
C         5.40054198598666   11.77632698723810    4.20535955282888
C         4.80149559484190   13.16648444172530    4.29035406892216
C         3.47316706727412   13.26947569090498    3.51953600350466
C         3.42324848030721   12.35995079230783    2.31504774800090
C         4.42313043511639   12.23513603002902    1.37070440229343
C         5.69706373950988   13.04944417297195    1.37496680401009
C         6.83107900485404   12.34102972879473    2.14144683958613
H         3.37776759364349    7.57497851766866    7.00157178951040
H         2.35223420318682    8.56361668174630    8.04225904659653
H         4.10952550047067    8.62968342748956    8.21283812340147
H         2.57037796752725   11.07966073095181    7.95961268383136
H         3.22562387876876   11.84480861183595    6.50576192756929
H         4.30995146324760   11.16627864114966    7.72309376128121
H        -0.46409908164240    6.29045029364461    3.06181494176308
H         1.02096014325203    5.70975136282459    3.80840628058607
H         0.68991436092886    5.35141414929417    2.11197652344033
H         1.17970390039287    8.85139220633715    0.88304126246619
H        -0.38091152536048    8.10360906067705    1.25798740280634
H         0.83976061508924    7.20024871016899    0.36433869584841
H         5.52111489998255   13.89218995343757    3.90762671929265
H         4.62418454323411   13.42012219694488    5.33850909632594
H         2.65035484694841   12.99160332939628    4.18435175549438
H         3.29881842952722   14.30410724149243    3.20172306304397
H         5.49500520554186   14.02964441552972    1.81067723957517
H         6.01803762576368   13.21659343039045    0.34443418909142
H         7.42101954921158   11.74666733881531    1.43927283775164
H         7.50879350859501   13.08287648663033    2.58101906231037
H         5.79308169608619    5.73326995711794    4.11940076633972
H         3.14470269769132    6.10669176474943    4.78131168883491
H         9.07827792401026    8.17880454155357    0.62576238525469
H        10.70150251392154    8.58312721400597    2.41599157053779
H         9.98004225347421    8.61720986565576    4.75711421517305
H         5.46034995158626    7.40529174771947    1.26920121058634
H         7.15058822463852    5.72245993892793    0.44115282938901
H         7.75709967645099    6.93795469745897   -0.68613664852250
H         6.09544858594109    6.37411148837415   -0.81572737360003
H         7.07546413830238    9.44028587304404   -0.32204720805515
H         5.70408177886679    9.75610397222373    0.77334087198187
H         5.45225670566904    8.85904749557631   -0.73118867853848
H         6.39169440591039    8.26635247801337    5.80636423334332
H         9.09823015104910    7.02720565965991    6.47675298894914
H         7.64679211506178    6.13789592325902    6.01777133071770
H         7.67926747527756    7.05256847604498    7.52679040062904
H         9.03259662171780    9.58894894683344    6.55790297246514
H         7.52285818245726    9.60984564349567    7.46294596690271
H         7.63148993290423   10.44125261317214    5.90823122193704
H         0.85252687446967   10.78115984146191    6.61445218685403
H        -1.05800618724948   10.36867285551752    5.14204885395930
H        -0.85445843876420    8.81663382291773    3.26013342225083
H         4.28756263837194    9.60695358374858    5.92533582430793
H         2.34748170186417    7.18093829684796    2.25123192630963
H         7.07458062395080   10.65886298696456    3.49741507437538
H         5.47423278350694   11.27440869981461    5.16667182399859
H         2.41657973000168   12.04926031873025    2.03386891296381
H         4.14140755515587   11.82474071792099    0.40214259062531

