87
CSD_code = SOQQAS | q = 0 | S = 0 | Stoichiometry = C35H48FN2Rh | MND = 6
Rh       11.17379453718027    2.99358927761045    3.74739163830040
F        10.96626365094662    3.17906273588391    5.67671869184774
N        11.24530801432206    5.88713474221444    4.42646137096870
N         9.47906232804385    5.55720656668002    3.25630207240513
C        10.60523909455512    4.94541359140443    3.69421430280739
C        10.53511013752510    7.05877673564908    4.44323914961193
C         9.42250838546129    6.85455594503860    3.70615059895971
C        12.49629184521519    5.71512950866461    5.08204938965886
C        12.53862075825956    5.62558690832506    6.47633714694299
C        13.77863044967551    5.45612475901068    7.07904053695312
C        14.93406279253958    5.38872885475131    6.32772024190027
C        14.87848643199932    5.53061987728530    4.95395019053178
C        13.66339054342092    5.70338552360802    4.30768240431150
C        11.30116933295414    5.76827567309994    7.33037560143633
C        11.31202463642633    7.13858225463197    8.01671237096638
C        11.18484437437511    4.65469562472797    8.37038608029163
C        13.60335626667705    5.99499280156361    2.82440971954104
C        13.64881536444661    7.51361796406967    2.61621562088581
C        14.71926424247279    5.32283401081502    2.02756002985637
C         8.48856362511989    5.00499797345838    2.40122904752318
C         8.53824056405793    5.30558474952837    1.03568040462564
C         7.54762679640182    4.78608741438000    0.21393185044153
C         6.55195271557241    3.97864604988510    0.73050011649459
C         6.52053936074603    3.69136109583434    2.08079338404819
C         7.47711679633499    4.21037492876286    2.94447645647507
C         9.62920873803396    6.17859848807164    0.45788354021630
C         9.05273167495050    7.53904447059678    0.05587494378071
C        10.31265194461396    5.51258335828315   -0.73809946776637
C         7.42867533860928    3.89599527519921    4.41915546308601
C         6.04250507894003    4.16148733279067    5.00956635517134
C         7.85945223430525    2.44549274495241    4.64058590977779
C        11.34584646272034    0.85165762591412    4.00592526325160
C        12.59084815934018    1.43572597633475    4.12655716739156
C        13.65449643021821    1.42785119121716    3.05460132252082
C        13.11592585760455    1.84799327949280    1.67457705015082
C        11.95942447657218    2.82289689027764    1.78316189116203
C        10.62359655820510    2.40940832227007    1.80711770341057
C        10.17797471834425    0.96317566722261    1.76561303019325
C        10.89884724558085    0.06876711557523    2.79253581999216
H        10.87576736130153    7.92720336181159    4.96822296427788
H         8.60125782985007    7.50021784208949    3.47278106266988
H        13.84133049202236    5.37664856046134    8.15282035888470
H        15.88753301777403    5.24565201379467    6.81533163504414
H        15.79407363977712    5.51459895702774    4.38474682029990
H        10.41920566765461    5.69953756521979    6.68934204436233
H        12.16225262030341    7.21835232220513    8.69055881319193
H        10.40070188167138    7.27423929268756    8.59507415336956
H        11.38137154338261    7.94605034459655    7.29021352266503
H        11.21266875101796    3.69320786067425    7.86947713456251
H        10.23780125903029    4.74550264979548    8.89823505199401
H        11.98756022904298    4.70008150480870    9.10160530071481
H        12.64990733737012    5.62365062111837    2.43822386609054
H        12.80770159468256    8.00045429558053    3.10535826854952
H        13.61183034705284    7.74916285135576    1.55433984213328
H        14.56849644026984    7.92312491176967    3.02946483071094
H        15.67919908022985    5.80091772428090    2.20814124489750
H        14.50691354007582    5.39580854814578    0.96244401047736
H        14.79213799280460    4.27283145900797    2.29467637782968
H         7.55623163400644    5.00853628976007   -0.84171199683323
H         5.79545288969804    3.57301219547689    0.07498469445146
H         5.73845240004801    3.05851025229153    2.46982488376973
H        10.39411614040413    6.34492397802084    1.22271979704931
H         8.29120982101646    7.41986923818528   -0.71117617339457
H         9.83983719683826    8.17973615737500   -0.33538456174829
H         8.60007651065433    8.03434671270362    0.91202607279690
H        10.66188362386435    4.51752409603858   -0.47307481193728
H        11.16776894125693    6.10756753021740   -1.05206254944887
H         9.63441511238528    5.42587141300099   -1.58273891616814
H         8.14560619021198    4.53168846524229    4.94607263584945
H         5.71000076949374    5.17075743978832    4.77331640461484
H         6.07968514812235    4.05526312426926    6.09115470125568
H         5.30673963021251    3.45838583819238    4.62764893098058
H         7.22389842171690    1.75825390184179    4.08600341439193
H         7.81127909544453    2.20040217928146    5.69826177561396
H         8.89958436468474    2.32636532329462    4.30869500390836
H        10.81068845654398    0.62439997541027    4.92667887996913
H        12.96975970509285    1.62731520200686    5.13072331027479
H        14.10381306933433    0.42952512426650    2.99656052984584
H        14.44454088486972    2.11956063155261    3.35943105416255
H        13.92453632688954    2.31056211851124    1.10347384704041
H        12.79210925276644    0.97120466751314    1.11066817213298
H        12.16413369962779    3.79263742097247    1.33525371058273
H         9.88155063591038    3.07920373529519    1.37496596257900
H        10.32728086366922    0.56937205721487    0.75291142372124
H         9.10306386039117    0.93932612700136    1.96184779751087
H        10.21918497910113   -0.72557951714191    3.10878147436979
H        11.76602178768658   -0.41302766904320    2.33710281982138

