68
CSD_code = SOQREX | q = 0 | S = 0 | Stoichiometry = C28H29Br4NO4SZr | MND = 6
Zr        0.72269013688818    0.45030659852375   -4.46527107351226
O         0.99119195107793    1.55248014048280   -2.82574140301568
O         1.36414271629348   -1.10684900407725   -5.55250535417663
N         2.11534940426341   -0.90895648500838   -3.08322169293203
S         3.54141559214575    1.13679769192941   -4.55841970678331
O        -0.97093550774479   -0.41396050718833   -4.48815910840273
O         0.50187337115460    2.06808049866169   -5.43596508653812
C        -1.93201300356148   -0.17894038006976   -3.50238349699476
C        -3.23256061600103   -0.90667825844435   -3.88515426902216
H        -3.58890575375699   -0.54087994559119   -4.84572054328852
H        -3.99771108788250   -0.74305014674571   -3.13150936457775
H        -3.04275140515157   -1.97468322673961   -3.97439453941581
C        -2.19408434418803    1.33754401704295   -3.39244140538035
H        -1.23962390772340    1.85955812382882   -3.25199887121926
H        -2.85814115298506    1.55725179582428   -2.55859652330159
H        -2.65002335864711    1.69560651577317   -4.31604392595559
C        -1.40397611647781   -0.72614388890231   -2.15975469128575
H        -1.33536865343280   -1.81372433429993   -2.20823958673248
H        -2.05889556724447   -0.45128939056714   -1.33609058031240
H        -0.40626569587106   -0.31243957584887   -1.97849218199258
C         0.24877657571796    2.13174688254420   -6.81202108524121
C        -1.11392604646153    1.47285523467362   -7.10360150603629
H        -1.19891126678936    0.57213011236255   -6.48602119647298
H        -1.21156766106800    1.20990433341476   -8.15415868394742
H        -1.91795428149198    2.15644568121570   -6.83238944428487
C         0.21366880693816    3.60798407860330   -7.25068401254876
H        -0.50030320700340    4.15228964376860   -6.63614839493101
H        -0.08067998590037    3.68373906281360   -8.29367350848751
H         1.19323717517946    4.06586128372003   -7.12559602605423
C         1.37892616917743    1.39984821283261   -7.56860531238052
H         2.33252410943382    1.90208994158746   -7.38921436266668
H         1.18390966612323    1.39417488190594   -8.63874092302562
H         1.45439388880348    0.36879591152698   -7.21369083023711
C         1.68512382833783    2.50384487801494   -2.26817011992953
C         1.46704503842364    2.81565361183129   -0.91157438781798
C         2.16477048353284    3.77666594303955   -0.21705236774272
H         1.95665551437397    3.96482416757541    0.82455051478623
C         3.14396598391638    4.48012238802656   -0.89550804762296
C         3.42088833724416    4.20718313401960   -2.22298694157381
H         4.20305040670584    4.75569535210936   -2.72691552110729
C         2.71230814637776    3.23829933529802   -2.91565805882703
C         3.07224281083268    2.92663181523185   -4.32555486696399
H         3.90919145817155    3.53627545541022   -4.66631489609941
H         2.20203089365484    3.04687052212439   -4.98233817318452
Br        0.15902243386433    1.77057000028009   -0.03275366430220
Br        4.15788400445140    5.80119920124984    0.02373597417149
C         3.84237684873881    0.70367036566677   -2.85054348674905
C         4.80823339218259    1.36324785834038   -2.10779909200644
H         5.44361309099017    2.08979903765033   -2.58926058251708
C         4.93595423243944    1.10269140452034   -0.75405518948082
H         5.67354352564913    1.63442643769181   -0.17368118607884
C         4.10475688013761    0.17525026325993   -0.14450356086345
H         4.18272217844652   -0.00484471232586    0.91665461721206
C         3.17377505770040   -0.52629928856404   -0.88736843190897
H         2.51384807627266   -1.23156313396196   -0.40332686337205
C         3.03949444073851   -0.28145952333138   -2.25543588237603
C         1.77352125789206   -2.13996011294937   -2.93551225719236
H         2.16655013549586   -2.75581916735376   -2.11779692678542
C         0.91783936961102   -2.77822212040321   -3.88877040808690
C         0.28710097662152   -3.99360017785912   -3.58799208214903
H         0.44230313118332   -4.44384496931246   -2.61823944342512
C        -0.55000868186666   -4.58782502598896   -4.50121976659257
C        -0.77968513954167   -4.01086781312490   -5.75148782191535
H        -1.45283822986035   -4.47208009564399   -6.45808748522465
C        -0.13061813824442   -2.84509299746375   -6.05979162732734
C         0.73928869703424   -2.16925929867423   -5.17112206710652
Br       -0.39658793578642   -1.98243494779641   -7.70621785170767
Br       -1.42836344942352   -6.21494328619044   -4.06205335681470

