126
CSD_code = SOQYUV | q = 0 | S = 0 | Stoichiometry = C56H63AuN2O2P2 | MND = 2
Au        5.46420144125418    6.20667083699836   17.51541024539547
P         3.30955941227186    6.47883620271534   16.83295510107880
P         2.80605422365568    5.02701645247126   15.32750244322960
O         7.58334986931151    6.50125115328934   18.17464077388353
N         5.24053381554221    3.39981948535123   15.53948867221752
N         3.43099415643974    2.51411844646576   16.31977445555302
C         3.92000869439329    3.59947427599489   15.68862434122751
C         4.23252865739756    7.89126880834065   14.30636476495055
C         4.14118432862462    5.56068147276570   19.88045565704274
C         5.58985152799464    2.19202880464204   16.08856636910062
C         3.58752258288498    5.50451803419018   13.72091674136551
C         5.41440946980062    8.35243691872296   14.88658150591521
O         7.31466039123053    4.34998538246072   17.78887362450753
C         2.23101853173426    5.79098308987281   18.15571238455056
C         4.19443989141634    6.72514098352806   13.39465193172537
C         4.44746360842420    1.62911583037231   16.57734417859980
C         3.04554675784619    8.61649708689877   14.47612894084849
C         5.35696249791891    9.44073184411417   15.75013909938883
H         6.26712302027195    9.75959259574819   16.23776102530493
C         4.52892546259278    6.82829205924924   20.35036523366946
C         2.74708124504268    5.37716146805288   19.39601183660985
C         5.74667569228478    6.97478125190522   20.98839853212409
H         6.04684406259583    7.95505548354943   21.33155771635710
C         0.83321783565350    5.78413932108318   17.98618188877233
C         6.19219440812276    4.64919475972981   20.75624257263101
H         6.83533910643361    3.79255460368828   20.90479261565498
C         6.99761121348481    1.73548578533324   16.13627743821431
H         7.44430830758396    1.72309066451937   15.14325943185278
H         7.06137783882904    0.74040538886691   16.56559196246103
H         7.55997445323936    2.43207212242942   16.76069657694156
C        -0.70325421644464    5.73717511337368   15.99397288297037
C         6.20496828429597    4.28594274555735   14.96007853824611
H         6.67150383158145    3.82610244231227   14.08697170011198
H         6.97125130637394    4.49886670171334   15.70694027348064
H         5.71579379840703    5.20956925308889   14.67294249653541
C         7.97165308418140    5.31894749213270   18.18154906668052
H         9.00789588494460    5.13895727249963   18.54559662862803
C        -0.66774223424528    8.50105981994197   15.87684182471010
H        -0.68609820597401    9.58249317399203   15.86725050556177
C         3.46460551417458    4.52087762823422   12.72251680618141
C         3.03272116887011    9.71685244213195   15.31157368714619
H         2.11314333507403   10.26913059672462   15.44165830439677
C         6.76201226999562    7.74679726739114   14.61471724634366
H         6.73019735681421    7.00960707991963   13.81658700771318
H         7.15379535434452    7.27887545969808   15.51776541276163
H         7.45803496611214    8.53420809787920   14.32690002031964
C         0.10546612302112    7.85176403023899   16.82618938825848
C         4.97709773761625    4.46540558123999   20.11107368840050
C         0.53729004809141    4.72395587777459   20.13427098337958
H        -0.10854410434176    4.29269579034096   20.88561881902299
C        -0.86828340622644    4.24551050113311   16.06324901695736
H        -0.41283120435985    3.83441005889676   16.95830733043807
H        -0.42576913744183    3.77229761306536   15.18816066247916
H        -1.92908647086474    3.99627058951996   16.07084367757239
C         3.29408301366112    2.02879075121093   13.05242899615469
C         1.89626793535066    4.82463778869468   20.35140772714195
H         2.32149595549651    4.49424199329422   21.28925137156559
C         0.00970034245126    5.24265234107701   18.96787215109185
H        -1.06151569980545    5.26606621039315   18.82184909115108
C         2.68538285381470    3.28092274542771   12.95989544420319
C         3.63848444376938    8.01538425236946   20.14937829425276
H         3.58081030937507    8.25399539948899   19.08615786097133
H         4.02807696858548    8.88341835621661   20.67534167309808
H         2.62887748986746    7.80917054707133   20.50341375716550
C         4.17507240095551   10.11558658090740   15.99552195373938
C         4.73701416154339    6.89920924409925   12.12286915029340
H         5.20138271978080    7.84648325891755   11.88837142569247
C         0.12702180686203    6.45010731860332   16.86442213935429
C         4.01673121788920    4.72249682609804   11.46521010755859
H         3.90776688649032    3.95292569219472   10.71400110699087
C        -1.43333399120195    7.80219734777600   14.95689477298887
C         6.59614784624388    5.89604822599397   21.19703127254924
C         2.05794894669193    2.28881941038161   16.65430381685694
H         1.88292452540763    2.45629439053966   17.71982835877274
H         1.77637347224812    1.26782908355716   16.39848586551398
H         1.44996319971093    2.98542806145375   16.08199993584080
C         0.53762047422231    2.22674820520545   13.22019094742038
H        -0.54184675215131    2.29097801902013   13.22672217038991
C         4.62525250834594    3.08885387605235   19.63134973882861
H         4.60201805758613    2.38582402478299   20.46423825476769
H         5.38697999363139    2.75865665712442   18.92635404988823
H         3.65588888524679    3.08489630103915   19.13953986904166
C        -1.44574129402391    6.41996370456616   15.03963992912931
H        -2.07275833475141    5.85510396357411   14.36302225007768
C         1.28547820158857    3.36764534851976   12.98199658348834
C         4.76226939035210    1.82958985337600   12.81386054906114
H         4.90038394313926    1.28332614175265   11.87981115025505
H         5.21015344650540    1.23606744715824   13.60924761670452
H         5.28321783187706    2.77765937036266   12.72734779657719
C         4.67139653539515    5.90391117109922   11.16835524501188
H         5.10211768177515    6.05745906554787   10.18981863146946
C         0.86133393304174    8.66384656317480   17.82926685471353
H         1.92637714501747    8.64157902183123   17.59285870515181
H         0.73004067539875    8.26138832507026   18.83205207389176
H         0.52638729456099    9.69866445928230   17.81689509060892
C         1.13912940185714    0.99225785635367   13.43124515396677
C         4.21225251276968    0.33027806033288   17.25637055031182
H         3.70905767435838    0.48157250196596   18.20978793525130
H         5.15842225632185   -0.16904966390912   17.44007660012382
H         3.59019703513805   -0.32012840361409   16.64029432492850
C         0.60034806976888    4.66815996675725   12.69800352574261
H         0.67721121313178    5.34241479211241   13.55158724140090
H        -0.45384506407045    4.50721047932311   12.48617574850050
H         1.06005747544091    5.16448325019339   11.84515167401186
C         1.80131651704087    8.19404836345138   13.76004512217753
H         2.01184530671945    7.92898907389618   12.72465843072709
H         1.05761657339489    8.98524569412059   13.78153119705951
H         1.37814762078722    7.31980066383197   14.25773712051116
C         2.51558302284881    0.90865129180776   13.31901827200306
H         3.00349601837438   -0.05205485737529   13.41598235834260
C         7.92409767764324    6.09835787183772   21.85949942189018
H         8.60254618904265    6.58920481902074   21.16166270159822
H         8.36303822167155    5.14833252276500   22.15590899486071
H         7.82693582007440    6.73468963548351   22.73788043139863
C         4.12939605385258   11.28108641498969   16.93702212803684
H         4.99110064157366   11.27495433532089   17.59963943128547
H         3.22256309225350   11.25314205317636   17.53819463946790
H         4.13271570019902   12.21785518584245   16.37823453479309
C         0.30168507268256   -0.21648991256769   13.72207148685207
H        -0.37726577509728   -0.02141419731726   14.55130738444254
H         0.92354233263841   -1.07352633642763   13.96995387970923
H        -0.30365386825422   -0.47333477829800   12.85324997775882
C        -2.24059561160063    8.51048198323620   13.91112487422559
H        -3.25841038651241    8.12487762182926   13.88262440733162
H        -1.79724716493302    8.35438387154994   12.92718952783514
H        -2.27741363936409    9.57967925371101   14.10502311453715

