77
CSD_code = SOQYEC | q = 0 | S = 0 | Stoichiometry = C38H33NP2PtS2 | MND = 4
Pt        4.66730378221693    6.97716231118727   13.61015129448626
P         5.48816305694860    8.03397765475996   15.49690183803359
S         3.47952641441258    5.80576889471169   11.97509434916908
P         6.10569672157854    7.87327471070741   12.02518360450707
S         2.97657335617176    5.90710906082650   14.79074991605656
N         1.37366471013532    4.53783401599572   13.20986153438210
C         2.39230005074017    5.25990431873027   13.28298254418422
C         0.89825945299885    4.01468830845890   11.96866295214216
C         5.50195075584973    9.82910316207693   15.20910622740019
C         6.45226089154645   10.72137044760744   15.68665382190091
C         6.35435724840298   12.06396524760007   15.36091561162445
C         5.32173487093612   12.51834285551357   14.55689191030927
C         4.37136672423750   11.62979348856397   14.07626763761514
C         4.46235247429262   10.29110449289064   14.40360389699404
C         4.52439172727454    7.86301606355743   17.02537828404409
C         4.52592429113785    6.60686652821304   17.62801309416969
C         3.77148197824089    6.38301773006343   18.76233913093234
C         3.00732657844070    7.40808276585799   19.29807698194848
C         2.99777401113599    8.65491367390908   18.69599088035037
C         3.74994686990884    8.88627206197656   17.55761329862098
C         7.15745431917106    7.60340049392570   16.07017998371655
C         7.66447080392257    8.04981052944954   17.28703063402028
C         8.94593895992440    7.69564709170537   17.66639465340755
C         9.71836655132240    6.88680208905492   16.84679053760649
C         9.20327646450564    6.41230094456135   15.65211048116282
C         7.92379528758925    6.76794335299111   15.26805570889706
C         6.55945948050108    6.58484788454409   10.82288565680130
C         6.80563787419702    6.83971418234604    9.48013677731125
C         7.15481321003100    5.79859705107561    8.63778123055272
C         7.26244866649011    4.50770174803406    9.12830572222370
C         7.01352686122778    4.24942760897028   10.46688196122388
C         6.65923028337525    5.28442872247820   11.31057447624781
C         5.32707465588869    9.18055626132813   11.03144862055755
C         3.93928589349900    9.26644001205107   11.06353602823062
C         3.28191140986782   10.23248454234855   10.32492069520279
C         4.00884434012904   11.12160021340547    9.55048030510146
C         5.39203798668646   11.04085215638880    9.51479676348894
C         6.05411910978913   10.07548560390328   10.25127722193459
C         7.72820099793174    8.59412396970276   12.43837750306958
C         7.79662142124857    9.90768251523998   12.89404196990199
C         9.00075269803254   10.43528518828978   13.31940780702504
C        10.14780049400906    9.65878010069784   13.29695454532827
C        10.08858519582433    8.35519881417332   12.83341162452598
C         8.88551347959893    7.82201159260137   12.40924500261194
H         0.86392167814798    2.92608525773229   12.04462459692243
H         1.52638140060586    4.30103978477216   11.11448766331205
H        -0.11836624157993    4.37953152690816   11.80814001405284
H         7.27407695884824   10.36971948618169   16.29255928543817
H         7.09306308990760   12.75939714039784   15.73246146998855
H         5.25919165332848   13.56562512772317   14.30045877017498
H         3.56946625985120   11.98079066861663   13.44374014127996
H         3.72968808384185    9.57523765101347   14.03929014717067
H         5.11536181221093    5.81179842180643   17.19057474076463
H         3.76981774687487    5.40743534262008   19.22522687543457
H         2.41218062390360    7.23194962167366   20.18191956364783
H         2.39645783286271    9.45101209122294   19.11066420444304
H         3.73397551247912    9.85797381812003   17.08368855548306
H         7.04788022023812    8.65536637852372   17.93762070060613
H         9.34352662358138    8.04498842735542   18.60822601049663
H        10.71833163379396    6.61396514524738   17.15013014207826
H         9.79617388531490    5.76236982483387   15.02593217315521
H         7.49032980623540    6.39349823044471   14.34651696084059
H         6.70997059669669    7.84329305686360    9.09139215064372
H         7.33761935174116    5.99522049805077    7.59132036434423
H         7.53004744674731    3.69942500157297    8.46374932827490
H         7.08404347291977    3.24108202582470   10.84723557952303
H         6.42715201486583    5.09263451202024   12.35496450900815
H         3.38235780758802    8.55810490519733   11.66846666662843
H         2.20397640394391   10.29281058428262   10.35241783957844
H         3.49913293427259   11.87923991497911    8.97351432413943
H         5.95786737556915   11.73407194110830    8.90916518699051
H         7.13417786556849   10.02245864992040   10.22910325199068
H         6.90396985070527   10.51656293893823   12.89873195751586
H         9.04285220444105   11.45621669571864   13.66953328691836
H        11.08726054087183   10.07098922162496   13.63390943717329
H        10.98390236241801    7.75174701276124   12.80300818673740
H         8.84218877981447    6.80446863346508   12.04606119624309

