123
CSD_code = SOQYOP | q = 0 | S = 0 | Stoichiometry = C55H63AuN2P2 | MND = 2
Au        5.38054175298112    5.55635847426498   18.00536546770458
P         3.28570636522911    6.20456556581273   17.34669051114385
P         2.76637244849705    4.88009691771983   15.74465942819478
N         5.21112173465637    3.19919733580482   15.90052287429361
N         3.39408076835756    2.39639888133805   16.75791589556049
C         2.44292388344875    5.21538597661867   19.85420341090150
C         4.23172404158387    6.64666090301587   13.93669842411823
C         0.65851329147385    5.66436403367669   18.29960901359845
C         3.89524937831478    3.44403334588779   16.07106400696691
C         2.03977347377771    5.61590677892598   18.56632617540140
C         4.53568867035564    4.15342229427850   20.71990915477454
C         5.53892315333421    2.01419011881142   16.51752619867492
C         3.59609110223752    5.42327785147732   14.18499128946657
C         6.20769522532629    4.01599473244196   15.27149240050483
H         5.73107859163025    4.84302385524776   14.75781083180635
H         6.78351753857977    3.42070881148896   14.56241236819834
C         4.39127354967871    1.49429682555638   17.03535207661784
C         5.40313720635306    8.17543408730495   15.56441239672192
C         5.76307320551146    4.25850596200590   21.35500065794412
H         6.31454480217148    3.35591650024509   21.58193925904222
C         3.49448673364752    4.48528986910913   13.13916281050218
C         6.94038517282168    1.53364827273735   16.58447020904650
H         7.35458218329887    1.36938406957719   15.58983412644729
H         6.99327009142120    0.60305226276676   17.14143414011140
H         7.55372027203164    2.27902132281105   17.09028912322958
C         3.82211599054598    5.30919267598322   20.39399915059085
C         4.24617985932666    7.77216860311761   14.89841006339095
C         0.03929209828736    6.33796751012560   17.13211991002677
C         5.57080491676822    6.62880767204080   21.38834673483388
H         5.97287325565393    7.59837129909325   21.64945481591617
C        -0.25478205742059    5.19084844241455   19.23651852395830
H        -1.31083615190566    5.25315889481930   19.00976834230429
C         0.01058305700168    7.73911907393026   17.12841380391273
C         4.34137724230595    6.55983513025277   20.75594059080198
C         3.24214186534970    1.98227782265880   13.36513728318034
C        -0.73088547528976    8.40714612656899   16.16756284518982
H        -0.75752240998224    9.48846212806960   16.18222080094712
C         1.50418821306651    4.74739865837083   20.76928324393278
H         1.84700734194180    4.43749223130800   21.74691074913866
C         4.02393242252068    2.78703596020858   20.36490709907282
H         4.82480708689352    2.20733314852379   19.90809105182525
H         3.18828231473462    2.85408137147222   19.67345357140288
H         3.69008318181685    2.25979730755102   21.26005317156586
C        -1.45180878404142    6.33905662597516   15.24381863340342
H        -2.04357071419348    5.78944713794100   14.52430615566171
C         2.67776282107840    3.25613376174013   13.29404794834765
C         3.04104759669261    9.59782158412492   15.89539213690674
H         2.13240686045915   10.17516010909006   15.98848758750050
C         0.73559097984792    8.51875994126834   18.17888292160226
H         0.48877735896503    8.14818548482196   19.17320912867395
H         0.48230929686021    9.57485827990385   18.12278587746896
H         1.81145236959560    8.41024620676474   18.03658448515586
C        -0.73309469036372    5.63667801524206   16.20186740690245
C         6.73823934863841    7.52264875059433   15.35649623698533
H         6.97731748605572    6.89106557181025   16.21264845044013
H         7.51106992798324    8.28597274317354   15.27917150635340
H         6.75948750463476    6.91474092656312   14.45554991760961
C         4.70986631809442    1.73756512331947   13.16867737480904
H         4.85446232214206    1.16134529145577   12.25388413107944
H         5.12191824506556    1.15383588069905   13.99075908634002
H         5.25736226719523    2.66906798131912   13.07047966570934
C         3.59232366770577    7.81670966373784   20.44022891875690
H         3.63761112995563    8.00519191484772   19.36505216085557
H         4.03105362925891    8.66847272213929   20.95507272805054
H         2.54398665841043    7.72990602965783   20.72259531312666
C         2.01191902952670    2.24018468201868   17.10857555396170
H         1.61801550479887    3.19538087512875   17.45839206990993
H         1.91348803018435    1.50246065807634   17.90127970480469
H         1.43889887470643    1.91304300988973   16.23779104768461
C         5.32552073769289    9.23581970171881   16.46034963558981
H         6.21452989789754    9.51385437415366   17.00950225020940
C        -1.45977970714564    7.72365235287551   15.20654356822687
C         3.07216777876059    8.52555978707884   15.02463201369849
C         4.14152315740578    0.20055215707202   17.72219495094570
H         3.75780556620528    0.35309306830025   18.73002252290157
H         5.06678414609470   -0.36363579501954   17.79102192991175
H         3.41617119339158   -0.39078806355039   17.16318834194181
C        -0.81650561379525    4.13836385938382   16.20389161584664
H        -0.74841256324952    3.73582560320558   17.21093579099698
H        -0.00197844062809    3.72051587649157   15.61348912077256
H        -1.75571387162553    3.81395741920978   15.76061926874557
C         4.78492461125166    5.91361901665538   11.69728300129923
H         5.25725648253095    6.10133855117278   10.74411488175298
C         0.48811456814472    2.26349401806190   13.43028034055574
H        -0.58753789007087    2.36617917726811   13.40165240977482
C         4.09923047946435    4.73169985595704   11.91511204923442
H         4.00697789825377    3.99920372316263   11.12540366364189
C         0.16052638508705    4.69999786814126   20.45878937886829
H        -0.55832966495068    4.33135365336406   21.17632837368404
C         4.82623241289610    6.86690231943346   12.69490263229969
H         5.31272875195109    7.81604672886148   12.51909316991796
C         1.28125135344642    3.38535757675586   13.25925995379914
C         6.30008435097650    5.48888431124912   21.69100809072817
C         4.15215349108105    9.94131439990951   16.65618396643138
C         0.65147594105254    4.71506089753897   12.98824899326621
H         0.72794357742979    5.36373934298281   13.86078729356458
H        -0.40117187980038    4.59719709036362   12.74507146799589
H         1.15293038112050    5.21496308816379   12.16119296881426
C         1.86420260700256    8.17005570648383   14.21550237920758
H         2.13196661031267    7.95255059195657   13.18196865954633
H         1.13782687841357    8.97753721683713   14.23310878231235
H         1.39272273638184    7.28249678477785   14.63938163460493
C         2.41843498075832    0.87986089672390   13.56409556086151
H         2.87195887488762   -0.09877812898164   13.64784679056730
C        -2.23603665346401    8.45714778358989   14.15453131018305
H        -2.46072406039575    9.47233768919077   14.47359282888702
H        -3.16911648773226    7.94359069828695   13.93129751574161
H        -1.65438440066873    8.51116255049984   13.23304233181970
C         1.04168129586495    1.00392576470984   13.62650489302781
C         0.15605849396420   -0.18414949155640   13.85407830436194
H        -0.44963447938979   -0.04275400104160   14.74916164881272
H         0.74240890762568   -1.09247917511400   13.96983057624464
H        -0.52385965556073   -0.31599386760532   13.01350419834287
C         4.07237016732725   11.06136788650919   17.64942851006680
H         3.54954827670812   11.91700960601059   17.22505609698429
H         5.06479740668975   11.37480814731623   17.96417045280462
H         3.52039088835625   10.73718632991382   18.53229178255135
C         7.65014119768258    5.58863737667515   22.33284936634609
H         7.85774251540818    4.71363043270989   22.94545814264380
H         7.72457087871141    6.48107461199051   22.95052710317012
H         8.41398146333197    5.64822503354351   21.55693828521086
H         6.87501171731869    4.41882978395254   16.03561844757779
H         6.79152588163725    5.10282973587678   18.29869060196135

