59
CSD_code = SOQZUT | q = -1 | S = 0 | Stoichiometry = C18H20N8O12V(1-) | MND = 6
V         0.13500933240633   16.57948236183352    4.82308058738671
O         0.56927525570460   17.77463389804744    6.15216087018802
C        -0.06096756393833   18.82663125541553    6.46985272550053
O         0.13941332824296   19.48897311957250    7.47971827162039
C        -1.16492661333238   19.25397366185384    5.47550541379149
N        -1.83072879578174   18.07387056027549    4.95268853030916
C        -2.86348358528630   17.56747777630534    5.84618014740625
C        -2.29243982073291   18.23410152962687    3.58599013805165
C        -3.35462994727788   19.29928695452805    3.38445451877685
O        -3.85986024881468   19.96566483669466    4.26418455678596
N        -3.70747483582303   19.43956516015692    2.06698839970621
C        -4.66262047635881   20.29998052028366    1.54906484956156
C        -5.40175059658081   21.18248274588524    2.25960262167046
N        -6.32617818566886   21.98619449417070    1.63875259273943
C        -6.57898846912637   21.97019799281419    0.29406134832255
O        -7.39939994393431   22.68357797334334   -0.23523115703970
N        -5.80875622142826   21.06335705182996   -0.40429950216664
C        -4.84901749253719   20.20399080170697    0.09816993904333
O        -4.23370589582481   19.45088559215510   -0.62554071526486
O        -1.22720911196964   15.60774964788237    4.05912541195895
C        -2.10856790293694   14.92348703487659    4.65883086458633
O        -3.11421332594499   14.45916096293576    4.13749644817811
C        -1.84898410133736   14.69838949170891    6.16626516401135
N        -1.26690273143696   15.89761180185078    6.74265926726959
C        -2.26687051923096   16.89811757344962    7.08998192723144
C        -0.34087077479728   15.62234641552593    7.82588965284442
C        -0.95565230553859   14.96807322671734    9.04961242058009
O        -2.13352884711404   14.71396143019889    9.19552402210204
N        -0.02229661014739   14.68650326781232   10.01368116111858
C        -0.25623230032656   14.12153535568973   11.25747730275175
C        -1.45860853140422   13.72352116365266   11.73273961526133
N        -1.57341519172348   13.17891621864580   12.98819876478366
C        -0.52286224978253   12.99552011322842   13.84557094425789
O        -0.64321639681286   12.51662761427468   14.94933902170579
N         0.68985650657151   13.40754605082546   13.33283521362531
C         0.93868064137346   13.96538451632566   12.09226213042431
O         2.05861731035139   14.28511420821643   11.75606532144929
O         0.60023380169454   17.34456975766020    3.56789600321523
O         1.13302145199492   15.46220168445802    5.18744531676757
H        -1.85619895928113   19.95989273652156    5.95954784789223
H        -0.64363165267866   19.76415426259153    4.65887106503034
H        -3.46433388099057   16.83461967629293    5.29971378372236
H        -3.53473992722183   18.37639349107939    6.17874164304474
H        -2.68907589279108   17.27425934419231    3.23394108087477
H        -1.41418943640629   18.45217996069541    2.96526463340992
H        -3.26606904989853   18.85388389458812    1.36551525835929
H        -5.29420717247128   21.28432610091041    3.32665266280297
H        -6.86719810362071   22.63694931973832    2.18939768834564
H        -5.96895323409874   21.02484133557609   -1.40495634186509
H        -2.77778761344705   14.38668944676734    6.66689533493493
H        -1.12035531699616   13.88287901709018    6.22062794113413
H        -1.79052951415093   17.66110899421708    7.71260851472740
H        -3.09158094223922   16.45274666807017    7.67046407645913
H         0.13039160164705   16.56373579281313    8.13299069679313
H         0.46153873758230   14.99256004378959    7.42140932197843
H         0.95143363178615   14.92224651494347    9.85182177474810
H        -2.35985071560916   13.81985994560880   11.15048290137568
H        -2.48120544489803   12.88968580588168   13.32236519333398
H         1.49189485040937   13.28552182614389   13.94136481237591

