60
CSD_code = SOQZOO | q = 0 | S = 0 | Stoichiometry = C20H33NO5W | MND = 6
W         0.48808218478275    2.53691805245014    8.11226336382789
O         0.68367951103224    3.47193174978519    6.72301197541781
O        -1.13031398691079    3.17435968786566    8.92497406284105
O         1.45920739368245    3.60446754070041    9.35472635411556
O        -0.40149242043500    1.00214550827655    7.41930972717738
O         2.01218090315961    1.36264361418898    7.85708857334749
N         0.41735661364671    1.23215274302437   10.16070630802427
C        -2.13920802836982    2.30846670858676    9.09124841931205
C        -3.31592137690809    2.32145388682900    8.31106220799614
C        -4.29013749044536    1.38038779386071    8.60548965879199
H        -5.18671549581247    1.37014638868218    8.01018337578285
C        -4.18342036623154    0.44307676191472    9.63150287465012
C        -3.03295442284685    0.46421653376549   10.40335937148351
H        -2.89578939314551   -0.22430320478857   11.22239952769743
C        -2.03124749924850    1.38555666583443   10.14655619940227
C        -0.78373048861638    1.48266947560045   10.98430633277909
H        -0.72393837129145    2.50120234533567   11.38583976828257
H        -0.82210869274430    0.77473082808437   11.82725416725286
C         1.62972340814301    1.72705207540511   10.82480133789168
H         2.49205378033622    1.30406894451802   10.29666923755598
H         1.66378673959862    1.42762552010961   11.88495022465883
C         1.70375830156444    3.26059896638392   10.67159071139115
H         0.96569423032879    3.76082349297054   11.33063474903147
H         2.70802030251257    3.60398079020822   10.97950014403062
C         0.51893989016450   -0.20959148348254    9.91998820415826
H         1.35426700724661   -0.40829292714077    9.24616209571438
H        -0.40367374992586   -0.55535519703295    9.45093488970332
H         0.67196539249249   -0.75750829278566   10.86145888915430
C        -5.32035620085161   -0.54213978779089    9.86237360832717
C        -6.60250832732643    0.23568514961274   10.19037130938177
H        -6.88999248868907    0.88785987158028    9.37103064270004
H        -6.45279526978142    0.84840852006688   11.07656840279242
H        -7.42212561429290   -0.45413117604789   10.38082452606734
C        -5.03828179904816   -1.50232728080091   11.02144989492579
H        -5.87832113313257   -2.18372940534145   11.14057497756126
H        -4.91149775283795   -0.96059488165554   11.95569574107418
H        -4.14869505808053   -2.09720566733029   10.82849523309283
C        -5.53033377916361   -1.37793150245990    8.59209848489876
H        -5.80628335897118   -0.75270142925547    7.74820740954441
H        -6.32242673633493   -2.10732211988074    8.74902085017470
H        -4.61596922823301   -1.90900274584649    8.33704287280961
C        -3.46769951630948    3.32260320981651    7.17132393793369
C        -2.43218982722615    2.98161788196506    6.08805213182508
H        -1.40489004872841    3.14800494012419    6.45412337782102
H        -2.58804472699170    3.61317132598483    5.21519131640885
H        -2.53797877861567    1.93930387403115    5.78838527826082
C        -4.86279678927336    3.28170469290120    6.53516906759729
H        -5.05408885201255    2.32231694799207    6.06062356115352
H        -4.92778284640397    4.04971713011738    5.76755755416450
H        -5.63652384570931    3.47884908168962    7.27378001659054
C        -3.22484590642752    4.74797317338236    7.68758394867870
H        -3.91186038724083    4.97866366462615    8.49987508515297
H        -3.38346541473986    5.46397554204524    6.88414181660613
H        -2.20138508812088    4.85649846335658    8.04590819794883
C         0.33305411128002    0.55617902243720    6.32131329337456
H        -0.02406446659144    1.06043642697361    5.40378128596262
H         0.19544280474805   -0.53658503000101    6.21139980919767
C         1.85732849815471    0.89721783711183    6.55415945798076
H         2.48044533086537   -0.00632952650228    6.40470412568474
H         2.17636862034151    1.68798882795893    5.84520003282353

