64
CSD_code = SORDIM | q = 0 | S = 0 | Stoichiometry = C18H24N10O11Zn | MND = 7
Zn        6.76417460026701    5.86854485206122   19.08726637547999
N         5.27270161956821    7.54497239520758   19.12430633942918
C         5.91140097978498    8.80735589942407   19.48208075520379
C         7.32940401632614    8.87002630388008   18.91278442485155
N         8.08820322326229    7.68243109475334   19.29787211748659
C         4.67667597447739    7.55152622431642   17.79770574666931
C         4.64637034400737    6.11801376134930   17.28221016611516
O         5.02256486965753    5.18225036781357   17.98729771899096
N         4.24576117853058    5.97121904257394   16.02035246968780
C         4.32254126039719    7.13152207032839   20.15346234947875
C         5.07840519018641    6.41236437713858   21.29444202946897
O         6.01760816290329    5.63955616553129   20.89417266365530
O         4.76412877310967    6.58253231262384   22.45374657055407
C         8.62927470235993    7.77488284686326   20.64451344758977
C         8.78850506891258    6.37300011007820   21.21694001784978
O         8.61121548428039    5.37528546708150   20.52440397259937
N         9.06572883403382    6.34110013687968   22.52197302655692
C         9.12513278375297    7.39911523652253   18.31058069587499
C         8.47076845818394    6.79204135728628   17.04532670351914
O         7.43847036457932    6.07332386023366   17.28690628392771
O         8.92959864468146    7.01750379352953   15.94745222374417
C         4.14879540255630    4.72819686699058   15.34665971243786
C         2.90978971635881    4.51443661517503   14.65658344009804
O         2.00049848835051    5.32402464523275   14.60114456536352
N         2.80811459023364    3.28130534613991   14.01345350640472
C         3.74968831959616    2.29103195211205   13.99755361654868
O         3.60173519970093    1.22455447579556   13.45479396850536
N         4.91748755052781    2.61619351969386   14.66162448186617
C         5.17715314906380    3.80655645989874   15.30189503404056
N         6.40776440877103    3.98792380761825   15.77588307780906
C         9.26480568143457    5.19038263655095   23.32210935833690
C        10.38634071570490    5.29607609730124   24.21644091782480
O        11.10917336139977    6.27386733611882   24.29205144150635
N        10.59252343581508    4.18794731045716   25.03253308358424
C         9.82643141320784    3.05665766033692   25.07578662884441
O        10.04886770947880    2.11291430678735   25.79116995342262
N         8.74165797185199    3.08350695837901   24.21923431192501
C         8.41088707289035    4.10998280965935   23.36371582305529
N         7.30730292804909    3.94803449745607   22.62297254956427
O         7.11456895323354    3.69901690081059   19.04864043832422
H         5.95436430343876    8.85588585077124   20.57244596669439
H         5.33001271037337    9.66903181461337   19.12763156753701
H         7.28365816215994    8.89091536748728   17.82188884293779
H         7.82533707619820    9.79051778318859   19.24910148554267
H         5.29966343127285    8.13523902467355   17.11725954858871
H         3.66291003844292    7.97710249376392   17.80171976811871
H         3.74732635778996    6.72073965707840   15.55540630403444
H         3.64000072892578    6.38786301959412   19.73868048194607
H         3.73942419427487    7.97041552132233   20.54986307507488
H         7.93268241915282    8.31763911179450   21.28654479818170
H         9.59740424357551    8.29629656667089   20.66024776201463
H         9.41684273755310    7.17891389841653   22.97394369422229
H         9.79614967044620    6.63369016070859   18.70259682731657
H         9.70640836456750    8.29021119534262   18.04564308562952
H         1.94078118006923    3.09364776273724   13.52472464825651
H         5.64398787166329    1.91335047764086   14.62359611240746
H         6.69455774699462    4.82311388761967   16.29111872231746
H         7.05139192834725    3.21621441984964   15.79761195578451
H        11.38487787901352    4.22723937397492   25.66281835828243
H         8.14596854980821    2.26688131653777   24.25887572858132
H         6.89861359410367    4.71082188626543   22.06739934619965
H         6.68453553601212    3.19401204531520   22.85947330732326
H         6.29208856376196    3.38692632266294   19.43777575440012
H         7.78789211057020    3.66395316397500   19.73929085041672

