69
CSD_code = SORDUY | q = 0 | S = 0 | Stoichiometry = C22H34N8NiO4 | MND = 6
Ni       -4.07486277080990    8.13052749339380   -6.74845853810544
O        -5.33210721547349    6.81800283572580   -6.66097217683825
O        -5.49903116438466    4.65473556494709   -6.24174660258279
O        -5.44320329097876    9.53782351633014   -6.79902017044128
O        -5.44610771134872   11.72301724271978   -7.17873576974741
N        -3.21680249299088    7.39106634798785   -4.75174644256454
N        -2.75984274065841    6.47057549934976   -7.48522004109622
N        -3.68662156383277    8.57971215494725   -9.06401631852367
N        -2.75902052851102    9.59119197040584   -6.47320597843018
N        -2.91306786083789    6.67003395083350   -1.83361744574432
N        -4.53480579693051    5.22495782627729   -2.23721459142790
N        -4.11577133998086    9.29773047089441  -11.97726671606832
N        -5.64151752523653   10.67802508040882  -11.17266533403375
C        -2.53421752577836    6.12268268271988   -5.02592839411643
C        -1.85528936978116    6.08314047042129   -6.40097077161937
C        -2.01605129304844    6.75826757022598   -8.71601922163942
C        -2.85264651489024    7.57545133375674   -9.72236596092642
C        -3.02692199414776    9.88434078253765   -8.94529690657907
C        -2.08969706000600    9.94509408779957   -7.73764537614235
C        -1.74123222821967    9.26563053928952   -5.45358317425601
C        -2.31448002922255    8.44969660829191   -4.28507018355889
C        -4.33664042456413    7.16840474036616   -3.81508385298856
C        -3.92971672179779    6.38217078403430   -2.61483437566202
C        -2.86051107005578    5.67967875234494   -0.90746655650140
C        -3.85888707151981    4.77844254342942   -1.13794150651769
C        -5.68546118647622    4.59664234848975   -2.83102788260471
C        -3.74690360014523    5.40314926936550   -7.71816459021268
C        -4.96400177865945    5.60718662492769   -6.78774876966384
C        -5.00055830457210    8.73304526006284   -9.71844502542583
C        -4.92424343716213    9.54128826577074  -10.97001227306644
C        -4.31969773380152   10.29814750911580  -12.87113088205458
C        -5.26346622203468   11.16000166455185  -12.39266397144902
C        -6.62978609934714   11.26188013360582  -10.30414203491224
C        -3.57173181100885   10.73558863683265   -6.01177037700138
C        -4.94808865708360   10.70182251657891   -6.73417729541929
H        -3.27844422783245    5.32543270009725   -4.99301485724938
H        -1.77726587558421    5.91033786313395   -4.25773363988391
H        -0.99299647074112    6.75145423827816   -6.40365719282194
H        -1.47666561388802    5.06068163827788   -6.56010791461624
H        -1.69465492879945    5.82431922430274   -9.19977087694053
H        -1.11242467500435    7.31177936605570   -8.45396927703969
H        -2.18045410983630    8.03170455713999  -10.45981646629664
H        -3.50628691916698    6.89967738611370  -10.27351065726075
H        -3.79251956330792   10.65241379357894   -8.83197965138570
H        -2.44644902919018   10.12107875832316   -9.84945337475505
H        -1.26056515126257    9.25592149746194   -7.89967133607165
H        -1.66958360640433   10.95880264749121   -7.66910964688967
H        -1.29693560927583   10.19147677661443   -5.06273185756583
H        -0.94063921758102    8.69908349996589   -5.93034862774951
H        -1.49139369134199    8.03696672652524   -3.68813753663624
H        -2.87996811184442    9.10987790082902   -3.62648543368005
H        -5.13168915513034    6.64152339196508   -4.34580031216194
H        -4.73673113709317    8.14269087743980   -3.52121659480080
H        -2.11192686797567    5.68162290399894   -0.14116740422773
H        -4.13614690702100    3.88093905899223   -0.62462413275931
H        -6.58765710462927    5.17729861651773   -2.62663700765568
H        -5.80352782498599    3.60313931821637   -2.40258054135011
H        -5.57577519042598    4.49982756059554   -3.91387680545730
H        -3.30890304760529    4.40556914754059   -7.58377146892602
H        -4.13446126187898    5.47992816493904   -8.73473335360112
H        -5.39739981339275    7.73693743371432   -9.92748714043605
H        -5.67750545505408    9.20964826899926   -9.00657405194655
H        -3.77726630743485   10.33105221372127  -13.79452686040374
H        -5.68551730103500   12.05163173078543  -12.80865209942063
H        -7.48320240506688   10.59059204827168  -10.19011081841096
H        -6.97385495330649   12.19642972540070  -10.74307961220373
H        -6.22001265993439   11.47351829440975   -9.31281889705441
H        -3.04944291774451   11.68725844656857   -6.16864658860538
H        -3.78974075393474   10.62413114499813   -4.94782245581074

