62
CSD_code = SORHOW | q = 0 | S = 0 | Stoichiometry = C30H27S4Ta | MND = 9
Ta        5.34133598932677    2.62862259573510    5.21578707699735
S         7.69388107805852    2.00070276708139    5.64294881464723
S         5.32613525559567    1.08088323224779    3.29319762752665
S         3.83194999093963    4.14376720109973    3.97113135305022
S         5.99492754767904    4.64769535550626    6.45663277672050
C         3.27391474444302    2.55708480339521    7.29285328094061
C         4.19390120844540    1.49768673803079    6.91099763641241
C         3.40036054216361    0.57972644210674    6.10785150399100
C         2.15158626682679    1.10499107894305    5.95831418240935
C         2.06629660670177    2.33827955548552    6.68845300678869
C         0.87332113938751    3.22744913065263    6.70551417441026
C         9.16897246310371    1.07564221145162    3.54594128532807
C         9.56638354990573    0.11675620238241    2.63291657409116
C         9.02835654597117   -1.15848827220909    2.68369139514837
C         8.09745753138427   -1.48052086892715    3.65817202368279
C         7.68952025410739   -0.52780763949757    4.57260964947925
C         8.21746100323370    0.75552229108157    4.50562049350544
C         7.00216097957945    2.90205955866644    2.06711058101771
C         7.81602320912077    3.30714151550767    1.02578523262600
C         7.99780695532012    2.49466251970313   -0.08046367395571
C         7.35690814200773    1.26778027230686   -0.14414045653776
C         6.54303683297776    0.85291752231039    0.89087799494903
C         6.36471573405423    1.66830681210606    2.00374589068467
C         3.97648811422099    3.82762878266907    1.25987996464570
C         3.67379145928379    3.19934636720738    0.06601808380396
C         2.79210469629500    2.13176178796028    0.04447339012983
C         2.20471163736122    1.69391567362943    1.22070537483713
C         2.50788137776233    2.30879554820205    2.42048554886243
C         3.40529867316812    3.36877987530324    2.43953743667786
C         8.59607207973796    5.20196491719727    5.78039129312210
C         9.57989214442048    5.68521843727491    4.93674875411417
C         9.23868786371675    6.28564455814680    3.73563248140144
C         7.90566844646548    6.41415393060937    3.38079143371744
C         6.91245854173553    5.93283423857406    4.21556534727952
C         7.26281152369277    5.31392139916571    5.40987243629662
H         3.52570795765888    3.36814376068190    7.95757369140685
H         4.91946147352879    1.11647928305510    7.62627945469330
H         3.75881764088138   -0.36179977921109    5.72233038715317
H         1.33971149356347    0.67487429632049    5.39727978168613
H         0.92546290145841    3.92481052506370    7.53771167078115
H        -0.04354416362391    2.64547855499327    6.77935248540403
H         0.83252634745533    3.80587002476454    5.78042881878400
H         9.57673786134923    2.07494573275451    3.51691971976180
H        10.29406262691609    0.36985790102680    1.87652228254993
H         9.33709399077533   -1.90369647864140    1.96599331380798
H         7.68265988365788   -2.47645016157315    3.70465842643284
H         6.95832679976910   -0.76570226046862    5.33301738187571
H         6.87202823659991    3.55235433900187    2.92631959498620
H         8.31082669927097    4.26520032799024    1.08812688840987
H         8.63556158293204    2.81645365524895   -0.88983600188603
H         7.49273171628637    0.62904948030356   -1.00402767000168
H         6.04068461758874   -0.10112783175237    0.85483838226990
H         4.66345913548169    4.65996866843718    1.28808388636397
H         4.13364765467567    3.54326976347285   -0.84854573862107
H         2.56111095814885    1.64113335852811   -0.88924557391670
H         1.51305105825444    0.86472959718305    1.20575074555043
H         2.07119011857363    1.96727977423370    3.34803100095907
H         8.84947593793080    4.72743118243233    6.71559413849889
H        10.61762486742470    5.59072618683711    5.21989436825857
H        10.01113026541287    6.65955241607437    3.07985888916240
H         7.63365927096199    6.89251800763530    2.45110339310967
H         5.86861293880846    6.03722313446365    3.95383631368216

