57
CSD_code = SORHAJ | q = 0 | S = 0 | Stoichiometry = C28H24N2NiO2 | MND = 4
Ni       -3.64839737466951   11.56640709611777    4.54103728577064
O        -1.99987653160954   10.73186985435914    4.58897123460336
O        -4.31160827684695   10.25396814154755    5.64368445317657
N        -2.99846830971721   12.84677337626885    3.40072299732248
N        -5.26230337593209   12.48755172997411    4.55951792725442
C        -0.65948848950099   12.26603351264958    3.33250777749297
C        -0.86872515957550   11.10324646665901    4.13277530902722
C         0.26492922883388   10.27554226567324    4.43204479997759
H         0.07572726123292    9.39854200973916    5.03199591560394
C         1.50153882363670   10.58176602366797    3.98239046811880
H         2.34231086757740    9.94340184880737    4.21685495249367
C         1.74354294421764   11.74420975638331    3.19994340519551
C         3.04082525375051   12.04610970081853    2.75830119123634
H         3.84483841444707   11.37244938355059    3.01931617157447
C         3.29063549401998   13.17009786806997    2.01440237061573
H         4.29071615870041   13.39726392834353    1.67673019444015
C         2.23576253774009   14.02710481784939    1.70007804939390
H         2.42737189563234   14.91938545941863    1.12139949909737
C         0.95821732411268   13.75095466839053    2.12082082653910
H         0.17750483559341   14.44977347515803    1.86236366303073
C         0.66286298131856   12.60133340329295    2.87489289042553
C        -1.78528606097258   13.03968980621611    2.97876159847932
H        -1.63747772299802   13.86008023714125    2.27808358831413
C        -4.07735502313113   13.63094365051785    2.82158993166264
H        -3.71496957725796   14.61191236531694    2.48129052002445
C        -4.65506694102495   12.84843035344629    1.63046943612701
H        -4.88014392868724   11.83262464747252    1.97789146855302
H        -3.89287171585688   12.77380161022924    0.85210646399324
C        -5.91987295920448   13.49619428542216    1.08221932206613
H        -5.68840412939852   14.49397567029005    0.70092701963042
H        -6.30321407974318   12.90050805711800    0.25246546781305
C        -6.96939850173037   13.60186163753014    2.18268293393039
H        -7.23211467306881   12.60132992836439    2.53180431085786
H        -7.87421034630337   14.07434885590855    1.79611399064790
C        -6.41323683493170   14.42623988453840    3.33819427422930
H        -7.16677956338375   14.57084593003264    4.11335117120908
H        -6.14401858116094   15.41988826861552    2.97155974457411
C        -5.13909724899840   13.80335639626600    3.92155634119134
H        -4.73576549221195   14.49245990423355    4.68149140427814
C        -6.36063303582545   12.14705241570162    5.16312786073353
H        -7.18400593000788   12.85313821608032    5.14554929946431
C        -6.58814734897028   10.94493108345366    5.87034354351453
C        -5.49136430841779   10.06029667793945    6.08569055290800
C        -5.71327987230088    8.88459231703770    6.87827163592117
H        -4.86061100515746    8.24177239936173    7.03502434575780
C        -6.92585240762987    8.60714632818874    7.40494835753589
H        -7.07119481756252    7.72055058802011    8.00672990649936
C        -8.04640023961842    9.45329970674934    7.18052690730274
C        -9.30138526448379    9.12504353334820    7.71556727335773
H        -9.38950465747153    8.22733330830450    8.31113335433288
C       -10.39662933132654    9.91711964801461    7.48735469686136
H       -11.36001806096771    9.65972294340807    7.90130580109006
C       -10.25666280952391   11.06135795079468    6.70201819488052
H       -11.11867212423242   11.68277228404286    6.50560717760891
C        -9.03731941161939   11.40398983943213    6.17169774857186
H        -8.98609754948111   12.29047249966960    5.55800947061251
C        -7.88805494830186   10.62573198505264    6.39998350307440

