94
CSD_code = SORPEW | q = 1 | S = 0 | Stoichiometry = C39H49CuN5(1+) | MND = 3
Cu        4.61981951516275    0.42591385506551   17.10337319524986
N         4.58238515403555   -0.11508774640414   15.14102110120778
N         6.10189928057144   -0.94752603396926   17.35437289471194
N         4.03101965363340    2.15908296984558   19.48948942359202
N         3.04806574247050    2.90405323489799   17.74260979962551
N         6.83245880360072   -0.79482425396072   15.12582526588101
C         9.33685555014120   -1.99722808253780   15.71764931459509
H        10.20295559770169   -2.47094643159467   16.17144540027401
H         9.66607603627433   -1.05735409493902   15.27297311259495
H         8.97570801952050   -2.65533536139405   14.92640450494135
C         5.69719248527849   -0.39220083281772   14.46090375418687
C         7.04455113125637   -1.16249343046352   16.43429691041873
C         7.47738598804496   -1.96285140586826   19.01085232602358
H         7.60500959005649   -2.27478512761521   20.03323236915923
C         8.28032114415102   -1.76900983603162   16.75584952725726
C         8.47820640825994   -2.15995512939533   18.06561763150776
H         9.40835772027973   -2.62908350712892   18.34873139180073
C         6.31228340734186   -1.35367118175822   18.60809753060505
H         5.50673498540990   -1.17617005310915   19.30248163421230
C         3.47916964490605    0.22117503040829   14.47024175900727
H         2.60426532364192    0.41159716181756   15.07068324127882
C         4.60825377823299    0.07947126644405   12.38711368856085
H         4.61664479882299    0.16492948698302   11.31099050822689
C         5.76080551696985   -0.28970604068631   13.05265843460991
C         3.44002513307195    0.32591395310628   13.09972237113357
H         2.52739376574498    0.59762774676554   12.59779611346623
C         7.02474866185680   -0.57694712561148   12.30032494391201
H         6.86288044500945   -0.42494262822710   11.23680220558794
H         7.34327180068851   -1.61040627401467   12.44213451438392
H         7.83083057004825    0.08756407707263   12.61340390745465
C         3.82786700020775    1.89501784485590   18.18274944800454
C         3.39172898442850    3.31059182015866   19.86059049980615
H         3.43348840484283    3.68835247999331   20.86080241242212
C         2.77026953545412    3.78290900302455   18.75397877562867
H         2.16949994100341    4.65555195954970   18.60265235240622
C         4.80856359382899    1.35565561341073   20.36941842428135
C         6.17096420270707    1.63037001962404   20.50817950122924
C         4.18353360724910    0.32065158751617   21.06815458371573
C         6.91271574423735    0.82692684547881   21.36354945535629
H         7.96821340349944    1.00844633583739   21.48606203267041
C         4.96228342593929   -0.45078783246586   21.92229677129849
H         4.50835741881112   -1.25617401487017   22.47744450500197
C         6.83101493409120    2.74672019804171   19.73326631785620
H         6.05731498136965    3.39090228723027   19.30371802021814
C         6.31321210452839   -0.20003977127616   22.06798238868078
H         6.90239120063477   -0.80711180021280   22.73837915363012
C         7.64317735968831    2.15596633175453   18.57711959967603
H         8.40021583460774    1.47097058162197   18.95207498148141
H         8.13702617628571    2.95045096270531   18.02292897280681
H         6.98864771223515    1.61083116709709   17.89802146521817
C         2.71405324792339    0.01846200840183   20.89131769295126
H         2.26248206834513    0.78241077237824   20.25127251909915
C         1.97947478874151    0.04147250541158   22.23289010939983
H         0.91256268716156   -0.09266179437139   22.07303376649564
H         2.13522614560385    0.99248446839841   22.73723273438765
H         2.32578582022400   -0.75368065598594   22.88661354648350
C         2.53994646056793   -1.33378433801318   20.19421910062771
H         3.01418225821002   -1.32137905147476   19.21380345398351
H         1.48323377839138   -1.55107101183526   20.06138034924489
H         2.98138026187986   -2.13362627346359   20.78315281761705
C         3.40841502487571    3.59050342843861   15.44045034526250
C         2.57109520172868    3.03568500661307   16.40868331069914
C         1.27194785475749    2.60761214689274   16.11556053458328
C         4.78903299675620    4.10128017283137   15.77919334786494
H         4.98221050462270    3.94119729442857   16.84424119776470
C         0.40313591716635    1.99733322919264   17.19242092603191
H         0.68843932385753    2.42928714994999   18.15751565314699
C         0.83023798020535    2.72551056734722   14.80512332941416
H        -0.16299912046081    2.40105737991186   14.54240801802443
C        -1.08544007413734    2.27724527365455   16.98972496252309
H        -1.25745782894690    3.33405854959403   16.80048407407589
H        -1.63462270102561    1.99553911550683   17.88475835055832
H        -1.48809508321984    1.70240324592116   16.16030372593267
C         2.92265263884219    3.69320062748037   14.14296802253395
H         3.54364502793592    4.12207872508918   13.37255975970190
C         5.86014962222412    3.33548720627151   15.00075726520039
H         5.82677244054923    2.27972450028421   15.26230519056689
H         6.84586602018492    3.72276066984295   15.24716831793325
H         5.71045774991348    3.43208943004314   13.92865443170843
C         1.64916421178342    3.26225254472641   13.82842670208812
H         1.28541984209292    3.35486656326180   12.81635485053467
C         0.65768187324138    0.48690184701120   17.25559289007083
H         0.06724414628206    0.04358798193840   18.05343829508355
H         1.71036404799101    0.27746597763224   17.44443506657614
H         0.37133730963335    0.01618511802488   16.31746485902840
C         7.71120159223587    3.62051641962976   20.62820907108165
H         7.15364678879029    3.96071182780915   21.49767992682008
H         8.04918049192298    4.49269309604705   20.07376923792697
H         8.58875527353361    3.08028734747124   20.97101053085535
C         4.88140379270304    5.60438981476651   15.50472412569133
H         5.84759824373379    5.98390393172484   15.82816997694009
H         4.10318999535492    6.13929893067600   16.04443548719576
H         4.76896809664812    5.81558646011221   14.44512100834438
H         7.61981206312682   -0.97063403328603   14.51930268115331

