49
CSD_code = SORVUR | q = 0 | S = 0 | Stoichiometry = C12H28Cl2N2O4Pt | MND = 6
Pt        5.94221093004529    2.76627878957636    2.21349001719096
N         7.93167380421357    3.25990227769899    1.52025074066440
H         7.81310615074518    3.88610162126117    0.72050719262840
H         8.46977908062803    2.43660167957352    1.26208311677341
H         8.38206741754989    3.76764074547052    2.28587026188659
N         5.49475581278352    4.85854440413764    2.53822690754562
H         5.62281195017277    5.31864855131391    1.63310837885382
H         6.19748264444569    5.20264277434679    3.19721634506342
H         4.55475885629070    5.00975085889058    2.89526823063084
Cl        6.46077549148970    0.58087474962170    1.85998217400065
Cl        3.84002774110469    2.30219673660146    2.94570495993354
O         5.18347889409037    2.81656810094740    0.28338716852179
O         6.59537920504389    2.52720147251558    4.16805574564328
C         7.37715810850477    3.39023568769454    4.67923250584735
O         7.78779539746679    4.38773227964172    4.08246829360760
C         7.76287645969051    3.09119146865862    6.11944057791774
H         8.03555313026445    2.03639326733919    6.17971615500095
H         6.86162520609809    3.23137520051662    6.71908362232051
C         4.84223500403430    3.69195925455036   -1.86224762358527
H         4.88093304262912    2.64915630904220   -2.17581628888071
H         3.79003202064425    3.95979837892516   -1.73449482910570
C         9.33259682991804    3.65596748339985    8.03691940239332
H         9.57684479462115    2.59335641201429    8.10374501924561
H        10.24362376824649    4.21766207025750    8.25669217485758
C         5.48364456832824    3.78338169151057   -0.48574479979439
C         4.72063348151610    3.42354295297094   -4.98274963652999
H         4.21010123676020    2.64381120389059   -4.41568136907926
H         5.74956909097605    3.09670454553872   -5.14939280091652
C         8.89510326663054    3.98641750507779    6.61063660272156
H         8.57772257627811    5.02911664203149    6.55344175728302
H         9.74814769642980    3.86975091650398    5.93887658673515
C         5.50717121585822    4.62242738733482   -2.87120341037984
H         6.52062933295390    4.26990207292356   -3.07417437047966
H         5.58982194081517    5.61419570599745   -2.42182480643976
C         8.80691967786509    3.75640732555477   10.50138070907110
H         8.04856817254967    4.00401161853304   11.24036876596834
H         9.68615424327114    4.36762379364512   10.69372291727015
H         9.08247411600754    2.71195207799738   10.62970680655079
C         8.28255563196148    4.00030947850314    9.09129353678029
H         7.38802060273760    3.39484792463559    8.93698380178415
H         7.99881259117264    5.05008234793360    8.98688132268294
C         4.72992179667113    4.72448350702630   -4.18248061405877
H         3.70139570395960    5.02693228126905   -3.97244279788781
H         5.18462452799906    5.50773054075807   -4.79374952445585
C         4.02252300277729    3.59831750421916   -6.32602892260957
H         4.02442645303693    2.66412583519326   -6.88255665609015
H         4.52583151304249    4.35510375813833   -6.92409380070896
H         2.98999582822747    3.90879403423820   -6.18126608361356
O         6.21274999146163    4.72254677462352   -0.16029346276881

