106
CSD_code = SORWEC | q = 0 | S = 0 | Stoichiometry = C40H59Cl2NbO4 | MND = 6
C         8.54903504493420    0.45108563021653    4.07011595547162
Nb        8.64530335948424    2.56250864930541    1.77608087403358
O         8.42283542860696    0.54246450034647    0.21783679165554
C         7.69129995955141   -0.66848692680766    4.07522984018198
Cl        6.26109016085187    2.38743356121134    1.31701612085006
C         7.78826013273035   -1.58275025642644    5.11105618560759
H         7.13090721726906   -2.43786164784109    5.12966855553666
Cl       10.92227413245136    1.75722165881166    1.46982942025435
C         8.71360189577267   -1.41734400415161    6.12518131929724
H         8.78047155163365   -2.14498619940865    6.92014450171892
C         9.54311609396158   -0.31228673487871    6.12488727449886
H        10.25561246715718   -0.18242331785706    6.92526975107723
C         9.47368963713363    0.63839190268793    5.11909916810996
C        10.37247148867796    1.85312840518484    5.14360411015454
H        10.08889628767396    2.50804594551862    4.31088348757173
C        11.83485243021728    1.44792484793609    4.94345474209189
H        12.47366464492744    2.32748235509238    4.98388285694551
H        11.96302535835217    0.97556782417919    3.97184057485925
H        12.15253182681108    0.75161908132307    5.71640145679682
C        10.19715203711565    2.64957468276629    6.43916939853901
H         9.14828397388530    2.88566063385316    6.60474376461062
H        10.75075499225365    3.58435806303123    6.37747594206335
H        10.56393333376204    2.08791848837306    7.29487244691128
C         6.64336011515651   -0.80019029067729    2.99521829946232
H         6.97865096030453   -0.22541532339461    2.12362562611019
C         6.40897169044793   -2.24816465226302    2.56465130649043
H         7.35256837006995   -2.75344395922913    2.36505227225268
H         5.79875378415919   -2.27107653651487    1.66348755584164
H         5.87864284008752   -2.80291030609130    3.33499864284409
C         5.33664849964352   -0.16918523666319    3.48728763535576
H         4.99868949044384   -0.65641765985050    4.40027947811218
H         4.56401562269808   -0.26393337416644    2.72772479601054
H         5.48666016832747    0.88934130818174    3.68621271270349
C         8.91278213306611    5.03106661305891    3.66561458331781
C         7.77580523252448    5.50575321567176    4.34770906114622
C         7.91787250576310    6.61022199185645    5.17209850377551
H         7.06333757568127    6.98928723408450    5.70900576323202
C         9.14151220333582    7.23831420923986    5.31687906555138
H         9.23061495447025    8.10041676727290    5.96068292815652
C        10.25160679751053    6.76579312755812    4.64077791906531
H        11.19767984753503    7.26778969720457    4.76389249899332
C        10.16472538696148    5.65890347031699    3.81194788880513
C         6.46515132403841    4.77326115225441    4.16997665785812
H         6.40078627436653    4.42886324756578    3.12939531861243
C         6.45362448773318    3.53012641039151    5.06892725490633
H         7.25289505072335    2.84420788633329    4.78391584360757
H         5.50237083235955    3.01098522482481    4.97195332999069
H         6.59080021727955    3.81336219038540    6.11165322385910
C         9.23216739290855   -0.63891032140508    0.27871826791738
H         9.31848402295124   -0.94740343599905    1.32585291588064
H        10.23451868798575   -0.39579569864767   -0.09872132149874
O         8.48743464545616    1.33513831531967    3.08271968638235
C         8.54509506484046   -1.67180011717211   -0.60834253781883
H         7.77620026255060   -2.20509445927474   -0.04969003429241
H         9.25130012643669   -2.39057558475646   -1.01663654945338
C         5.23986702524774    5.64082708129855    4.44874371172808
H         5.13991867911793    5.85123329617014    5.51123327876842
H         4.34437520319413    5.11606265060977    4.12389915511229
H         5.30115070405919    6.58273696684560    3.90794532432560
O         8.80163034158731    3.97311992662883    2.86974432193070
C        11.34485082896544    5.11391509464628    3.03976919334061
H        11.25093967718479    4.02093838084929    2.99304795624454
C         7.90610423304467   -0.78382343447130   -1.67292775606815
H         8.64825460651541   -0.48858739128629   -2.41436087169851
H         7.06695286683608   -1.25586259256771   -2.17797705581826
O         8.77205282434853    3.49709958014320    0.24342788981913
C         7.46849657768597    0.41947719239507   -0.84450628183240
H         7.45310033116840    1.35834429938705   -1.40781177409857
H         6.47494362967702    0.25824614044650   -0.40508425798654
C        11.29843142567219    5.64266402946165    1.60051244569695
H        10.39057964386180    5.30567900317179    1.09798700938604
H        12.15774178351703    5.27603505937370    1.04290580194964
H        11.31817998055958    6.73163616916497    1.59411636584270
C        12.69254404380974    5.43799441687217    3.68064802045690
H        12.93405658889681    6.49345413347740    3.57681739398600
H        13.47422846270893    4.86414766096052    3.18822865777678
H        12.69068326396648    5.18023431232483    4.73751801771159
C         8.70667044463573    4.24777821866792   -0.84864318650826
C         9.39951543758709    3.86571293922509   -2.01603522930416
C         9.30614771668967    4.66531012606232   -3.14316663711467
H         9.84048433037311    4.38766706402607   -4.03825179152389
C         8.54032347391741    5.81650356076033   -3.14089022477182
H         8.47321814247672    6.42328927845764   -4.03151073252903
C         7.87041240578654    6.19354019529685   -1.99265990360461
H         7.28139389681227    7.09807160832460   -1.99372512986296
C         7.94535323830524    5.43566372694314   -0.83509122965119
C         7.22086964006312    5.86954853586357    0.41820768702864
H         7.48963880249237    5.17998401778402    1.22729130080182
C         5.70528031871706    5.78889051365704    0.21958077094122
H         5.39005766306921    6.41681808999331   -0.61081885121601
H         5.19351733676454    6.12049440361210    1.12034206079646
H         5.40857609687473    4.76232010813791    0.01522242210550
C         7.64327316348756    7.27618055250588    0.84966256801061
H         8.72548207172626    7.34083452182878    0.93815546704546
H         7.20851540167586    7.51283693367761    1.81871470280679
H         7.31007377198467    8.02128120431400    0.13134405884012
C        10.27957993113240    2.63822659733535   -1.98672838548244
H         9.93662690478016    1.99267672094692   -1.16936394973420
C        11.71807591465426    3.05883191890469   -1.66864811488358
H        12.08126476524535    3.76664476454851   -2.41171586377801
H        12.37062997124707    2.18876135855949   -1.65930699660964
H        11.76121760739462    3.52394983931830   -0.68669399320641
C        10.23104995518386    1.84187848130348   -3.29097470049796
H         9.20274322191171    1.67122654065325   -3.60561454269484
H        10.72292181114865    0.88031327101010   -3.15514169887358
H        10.75101381921262    2.36743068448656   -4.08832955512473

