53
CSD_code = SOSGEN | q = 0 | S = 0 | Stoichiometry = C24H16FeN10S2 | MND = 6
Fe        3.37916844118112    0.00131818755644    4.06458733421904
S         7.32792150141280   -1.76520051472490    5.23100059335802
N         2.73918560528162   -1.40052335452565    5.35616656369405
N         4.13191820617642    0.73174219061571    5.68425771260787
N         4.94687109439208    1.71147675059104    5.92928826318765
N         5.44747056406101    1.53524528330148    7.14040033585034
N         5.04157377579146   -0.95534068894507    3.91148023505757
C         1.95027151220017   -2.43871361824628    5.10865365343906
H         1.59134378479548   -2.51767817586287    4.09451597163118
C         1.60778437093273   -3.37574748660251    6.06862144696722
H         0.96404585551401   -4.20081699660249    5.80931199144167
C         2.10426683350342   -3.23489380971234    7.35701540753015
H         1.85638987814003   -3.94703516909126    8.12931118924664
C         2.92518074885449   -2.15802999258403    7.63028018859487
H         3.32786784265731   -2.00483942249999    8.61774443740509
C         3.22512281704027   -1.25966943058569    6.60874006338355
C         4.06151441596299   -0.10069010268268    6.75371804591345
C         4.93066549270950    0.39885576388122    7.73245405914505
C         5.37893746220611    0.04643929360127    9.01296681319556
H         5.00378129549158   -0.84689570791699    9.48216267675487
C         6.30496425202114    0.84234225554157    9.63182172372658
H         6.67067455431706    0.58632523220581   10.61312776058812
C         6.79528403197583    1.99746886531024    8.99233822516975
H         7.52562530976739    2.61808362131541    9.48395913826451
C         6.35718308485213    2.32869307138076    7.74456364463371
H         6.69161639432382    3.18591869898953    7.18413008620692
C         6.01188723645297   -1.30003457877005    4.47992169977111
S        -0.54334413657037    1.81896031598484    2.88641044798154
N         4.01799570426799    1.40467022082033    2.77329130145936
N         2.63000159889755   -0.72984844703677    2.44623325658310
N         1.82007927163659   -1.71351641628268    2.19981457480089
N         1.32554063478365   -1.54311135753499    0.98534748497533
N         1.71895480321162    0.96122130311596    4.21731930366217
C         4.80109291486383    2.44663472347987    3.02277118449633
H         5.15872593654737    2.52633100365585    4.03731278211963
C         5.14031562793743    3.38591591086205    2.06377833249161
H         5.77946241710273    4.21408532821133    2.32452566539647
C         4.64653834222917    3.24306626526867    0.77460401888798
H         4.89164256491210    3.95706665072215    0.00314936017163
C         3.83127661844056    2.16237593011048    0.49951074723270
H         3.43025692940815    2.00824878458710   -0.48845187224236
C         3.53426361068856    1.26201229505505    1.52015662868160
C         2.70274139089789    0.09968650654144    1.37443430567296
C         1.84096073439480   -0.40640442782094    0.39261072965263
C         1.39865553097331   -0.06018353379608   -0.89170156873337
H         1.77296095046806    0.83298475408108   -1.36186261486603
C         0.47956846930923   -0.86204745042310   -1.51329668772581
H         0.11864165772335   -0.61088692994009   -2.49762415095313
C        -0.00956155925662   -2.01712986677574   -0.87292468710933
H        -0.73425991001238   -2.64257165306418   -1.36677109048563
C         0.42278811399684   -2.34242786054644    0.37849664550057
H         0.08905670271351   -3.19946276485139    0.93963928532430
C         0.75932871841939    1.32653055064364    3.64338735604474

