49
CSD_code = SOSHEO | q = 0 | S = 0 | Stoichiometry = C18H22N4O4Zn | MND = 4
Zn        1.46734010381160   -0.10969979045986    4.98219228243112
O         0.96146589846844   -0.59448516249331    3.03146258990693
O         2.99759240372039    0.01300232680333    3.52547132862549
O        -0.34544506287686   -0.05905431527723    5.91829150371137
O         0.55326779519295    1.71894450389483    5.03889793946655
N         2.10332030429780   -2.08766540918507    5.45102513382538
N         0.82456180643492   -3.40912041904468    4.02395539242455
N         3.01214090715974   -3.42891422491830    3.69629211809972
N         2.77997172739349    0.29754303233185    6.51453959825707
C         2.00094576317860   -2.92461140786863    4.45247918160567
C        -0.46447501843360   -2.97264631803734    4.48280989353730
H        -1.13579026880926   -3.83224224808817    4.52670311056975
H        -0.87579476470143   -2.21635432100559    3.81093605870117
H        -0.35880633397151   -2.52835242446005    5.46798583214478
C         0.96138657427933   -4.01977164600717    2.71980179728600
H         0.54054178096629   -3.35976947698826    1.95074069863406
H         0.43010653289602   -4.97496566955410    2.69081433564663
C         2.48038104196740   -4.18412865126068    2.57631615659726
H         2.78921632048477   -5.23356326086919    2.65477332665101
H         2.85195861649870   -3.78424698164614    1.62834560581017
C         4.34864852521993   -2.89208546157842    3.66583904618044
H         4.76254203272317   -3.03014530602016    2.66802830563398
H         4.99344809901939   -3.39786599827801    4.39017690639064
H         4.32973374941220   -1.82428342314684    3.89470265208502
C         3.15859794193778   -2.04035615833168    6.31282518408846
C         3.85907079105091   -3.16105509077005    6.73641661052455
H         3.60103948874484   -4.12749056373738    6.32777719460228
C         4.86276316471821   -3.06417763908093    7.70117059289177
H         5.38451007386907   -3.96178117571964    8.00101939978131
C         5.19201471513335   -1.86108732174099    8.26922343287603
H         5.97328264784930   -1.78955510912652    9.01062067609416
C         4.49828984529307   -0.69701043500995    7.88857997055901
C         3.47217533461545   -0.78408851216154    6.91096288540723
C         4.76692998185281    0.57886017049416    8.42628146034577
H         5.54013153481080    0.68233401915492    9.17479595642426
C         4.04886231957260    1.66063461535949    7.99256725662772
H         4.23445744502596    2.64979008496457    8.38124108392682
C         3.05253580139284    1.47162862592939    7.02393368545834
H         2.46346993510134    2.29860062311947    6.65448910828599
C         2.12836681922232   -0.30425184167255    2.68897020421055
C         2.50065716605473   -0.36543946143577    1.21864748245777
H         2.33627367699301    0.62136858971866    0.79159319658924
H         1.86884814945765   -1.07903140996068    0.69703190436023
H         3.55115269600430   -0.61953766157856    1.10868541360464
C        -0.39789819594402    1.15444872082547    5.62102861548616
C        -1.62690868885601    1.96099523629902    5.98520742504641
H        -1.34192329827042    2.75214368363677    6.67439778403702
H        -2.37007432344426    1.31707749632132    6.44424700533967
H        -2.02928355651347    2.42076256766179    5.08650567674996

