51
CSD_code = SOSHAK | q = 0 | S = 0 | Stoichiometry = C18H24N4O4Zn | MND = 4
Zn        3.70699701936752    8.05066710686580   -0.02064539962992
O         2.69173044417481    6.19864203190480    0.04283994758063
O         1.97677692365306    7.89874620841921   -1.12067177732720
O         4.08447371057210   10.05300002228568   -0.08394482498485
O         2.89857001544680    9.16289826313602    1.51154361298770
N         4.97339881889790    7.28672966918639   -1.55076393475386
N         3.87376199758807    7.82270566715969   -3.49779653763687
N         4.34010662597315    5.59036193169541   -3.05261189934489
N         5.27371310969205    7.37213839944377    1.13295104323326
C         4.40952196080958    6.89712775324754   -2.67283641580418
C         4.18476942542629    9.21696697848131   -3.25925978402874
H         3.55249211164411    9.64264268721109   -2.47855657577067
H         4.03408521291529    9.76166667985748   -4.19147417070519
H         5.21990618228914    9.30904648797408   -2.94226747222448
C         2.58347537239099    7.62340798146829   -4.12470006826676
H         2.27767067343073    6.58433720702186   -4.05910967122868
H         2.62298003553420    7.92985761579595   -5.17243138374979
H         1.83958960919926    8.22833702932330   -3.59973589672299
C         4.37218542826627    5.17603300258689   -4.43499961214591
H         4.50986856303992    6.03764620396328   -5.08257139793746
H         3.45599782175978    4.65070032388905   -4.72032061399078
H         5.21308901517600    4.49024546109024   -4.58090957598337
C         4.41789406084225    4.51821947897878   -2.08996372855615
H         5.42994609937764    4.10611409809450   -2.01192704698766
H         3.73836654126020    3.72387633898641   -2.40519022967871
H         4.10061964631561    4.87966102872992   -1.11310352501041
C         6.06749115405131    6.68539917051342   -0.99913224458556
C         7.08384731837448    6.10295264343953   -1.74352428373626
H         6.99771681037436    6.07046418041344   -2.82036156275948
C         8.22709801525832    5.58637120117157   -1.13176949524932
H         8.99220798352886    5.14055590490138   -1.75121018279389
C         8.38990954765928    5.63378781865542    0.22785966005472
H         9.27004387789551    5.22329180672108    0.69906968645483
C         7.39934777528862    6.23434392818521    1.02764623728572
C         6.23790104353889    6.77331517070570    0.41400233983222
C         7.49072362853036    6.33432172479704    2.43154733046887
H         8.36171469783581    5.93440553251768    2.93183869669374
C         6.48018764190316    6.93358612044889    3.13383354849610
H         6.51831224147712    7.02066242920524    4.20846088744914
C         5.37957078182693    7.45001998154353    2.43429733439416
H         4.56614696228035    7.94142330478380    2.94812506883353
C         1.82866397076605    6.73798423751976   -0.67858934221834
C         0.58018100975951    5.96114216959288   -1.05031996911400
H         0.13439448060534    6.37146256476978   -1.95156683552892
H        -0.12922302439012    6.05418254758859   -0.23114852474115
H         0.82141360289708    4.90963777555871   -1.17872188815607
C         3.38592943236793   10.16485859171960    0.94887314489141
C         3.13660247588541   11.54329409945429    1.52561570441602
H         2.69056127135079   11.45898218564365    2.51150043246085
H         2.45958371858547   12.07867719012942    0.86425898329237
H         4.07368715730912   12.09110206322398    1.57347221252654

