46
CSD_code = SOSHIS | q = 0 | S = 0 | Stoichiometry = C15H22N4O4Zn | MND = 4
Zn        6.35392883189810   14.88656997765232    3.31610000972305
O         5.33584654468655   13.79479734857737    4.74168797233741
O         4.31108555796242   14.87880055040805    3.15401330068521
O         6.70048732891308   16.49846560946068    4.55188707193602
O         8.30247447378609   15.07473901252021    4.13621182355596
N         7.10514914976735   15.81764334263883    1.58919265820937
N         8.65379101797689   17.67990565853794    1.64679729158574
N         6.47874900417778   18.00961534735780    1.92107892455690
N         6.68271074291288   13.20264752298997    2.10968797133820
C         7.42605787281865   17.06322870484119    1.74385189218126
C         9.91995712195939   17.03225913426176    1.91388596154029
H         9.84873523605863   16.34562070610163    2.76110986845692
H        10.65592887292654   17.79935079865485    2.14862025487213
H        10.27118179996770   16.49089882163229    1.03301921377305
C         8.52741113315995   19.09149397293547    1.98216094659335
H         8.79811184300488   19.69931126048121    1.11028797361311
H         9.19104705161081   19.35791793075666    2.80941737091654
C         7.05296995447381   19.25824448495169    2.35794028069658
H         6.91098179608158   19.39014899213156    3.43936062767057
H         6.57878464721963   20.09640141778402    1.83964328531332
C         5.08247118307983   17.75821492628335    2.13544396302111
H         4.81399472823221   16.81946693612948    1.66205393097757
H         4.51010942855009   18.57707564653474    1.69542188425886
H         4.85343298809456   17.68152060112370    3.20044490362938
C         7.98904972173492   14.86069827716478    0.96928898001337
H         8.94270433088314   14.75581496381729    1.50171855615470
H         8.19470305099424   15.15004576263457   -0.06923250859012
C         7.36865234987035   13.49569506152481    1.01474198496750
C         7.55328594966572   12.56114496974181    0.00100792322190
H         8.11328255635379   12.82497970934909   -0.88325161573584
C         7.00643722336304   11.29875331149297    0.14611497238138
H         7.12942110288166   10.55614724415262   -0.62866703598275
C         6.29946894606032   11.00471557946527    1.30287369183803
H         5.86290450591656   10.03093538685122    1.45734277206567
C         6.16336439112709   11.99487644976742    2.26018437044811
H         5.62900699769791   11.82682053100927    3.18365187516642
C         4.28408067188690   14.19419319609375    4.20107310679051
C         2.94558383087683   13.83588929082617    4.81538968204864
H         2.56593582451273   14.70891515935198    5.34178152964832
H         3.06523498593438   13.01744189791719    5.51875700994765
H         2.24107862568999   13.57308729874235    4.03095097346547
C         7.86076783516690   16.07288914147950    4.74063055506871
C         8.76022258129811   16.81254987961521    5.71545623785516
H         8.56002620692773   16.42654058734264    6.71234578435159
H         8.53220364319122   17.87487170484707    5.70394027883217
H         9.80528635862318   16.63725589206926    5.47588149459510

