77
CSD_code = SOSJAM | q = 1 | S = 0 | Stoichiometry = C29H32F3N8O3SZn(1+) | MND = 5
Zn        9.95659468566252   12.23276908173076    9.24662853216725
N        10.45646644482224   14.06835327975362    8.46267877898755
N        11.89011660198613   15.60010047001393    9.61426459428798
N         9.71575801957549   15.66326709382768    9.99850706747227
N        10.71818430535273   11.55940761596992    7.49101483701397
N         7.97048621095124   11.75138751293490    8.97795265660852
N         7.74362181415728   11.13423656872117    6.73855048002222
N         7.28909538748638    9.57749998830638    8.23869515666152
N         9.29534941089853   12.78482959497968   11.09310108723530
C        10.69437410346825   15.06168476164274    9.30107006132850
C        13.16510276718586   14.96616377081567    9.38162390680106
H        13.04358423482674   13.88254753240517    9.35639586485090
H        13.84087466474217   15.22432438984077   10.19494295414068
H        13.60397225568126   15.30070972286702    8.43858495740034
C        11.75069893253569   16.60053737250777   10.65986514980767
H        12.20223521127849   17.54409068305737   10.34007526492551
H        12.25754337795643   16.26899753257092   11.57194431284850
C        10.23277582182420   16.71035058594962   10.85540525723903
H         9.92613223839818   16.54192027195284   11.89230363144665
H         9.84470535545185   17.68419510666669   10.53657139268328
C         8.30456704984329   15.52819280949499    9.78087843879930
H         7.90378211487605   16.42136111125260    9.29179058572142
H         7.79471234972402   15.39374430668719   10.73615942579478
H         8.12343324590083   14.65849078987125    9.15481498687735
C        11.23070937001040   13.87709158054505    7.33867675632482
C        11.80973254257705   14.90934576996437    6.61818330347024
H        11.70147470985752   15.92524186018510    6.96737915629579
C        12.50773981776620   14.66449841747913    5.43247132917820
H        12.94748642566939   15.49837089291270    4.90680614324197
C        12.64026206477561   13.39531687399047    4.93465724874934
H        13.18906813385162   13.20755615143106    4.02554958913579
C        12.04539825556404   12.31493649747719    5.61360283490074
C        11.32656621513161   12.55610821118981    6.81512969187695
C        12.12079518931096   10.98132075668128    5.16273632890332
H        12.66615396060253   10.76086013515982    4.25692602341384
C        11.50329047304649    9.99007021933762    5.87885743657155
H        11.55213039591902    8.95967283352024    5.56520464602019
C        10.80468686443553   10.32801200312131    7.04409047566609
H        10.31477247353575    9.56887667614133    7.63719865451503
C         7.66901246571230   10.85803467452943    8.05336336411866
C         7.88684874959790   12.43384702341929    6.14879490402997
H         8.21765025039593   13.13400316458796    6.91119876354192
H         6.93550901353272   12.77350683815147    5.72793808071492
H         8.62956458248447   12.39697720858506    5.35018130461171
C         7.36584034160960    9.99519091021020    5.92755047831618
H         8.16448225474735    9.74848636787472    5.22093630374357
H         6.45973497678123   10.22286355367082    5.35532426248976
C         7.13111078343003    8.89139644207034    6.96712798401267
H         6.13037506709636    8.45498945806406    6.89677576341234
H         7.86411821506623    8.08308814084549    6.87834636085818
C         7.49097659590434    8.82018394666061    9.45004062687503
H         8.31431146725216    9.24555555055224   10.02492302913834
H         7.74093416622621    7.79353571434449    9.18706892959357
H         6.58911616417238    8.81557933388939   10.06674837754779
C         7.35130893743284   11.73582076361949   10.21197628090622
C         6.04471130081727   11.32254240370002   10.41259654874863
H         5.46758317368231   10.96161747770995    9.57449739104525
C         5.45115050152365   11.38293228632885   11.67666477445454
H         4.43338758685247   11.04167737178496   11.78963855044519
C         6.13991118661501   11.85489902511077   12.76201141775332
H         5.68900869757666   11.87871681921183   13.74133286313144
C         7.45561120606311   12.33006688845045   12.60019412187448
C         8.05655148401335   12.29504065201720   11.31462583133851
C         8.22717418068259   12.84998639149203   13.65936306878009
H         7.80851784831644   12.87361686141314   14.65476864669278
C         9.49071348704078   13.31518250460114   13.40882625328001
H        10.11041896694556   13.70836622897553   14.19827647485828
C         9.98424767856522   13.27040446800370   12.09996952266024
H        10.97414312673921   13.63762455377673   11.87263594985105
S        11.49433371258373   10.82247530193126   10.75898325312114
O        11.89406742679974   12.07228034105708   10.11806906750164
O        10.29080738208611   10.30811072609770   10.11255033954957
O        11.50099893898004   10.81124491167700   12.18103804453960
C        12.82676805460895    9.62609251309270   10.20006358689663
F        12.98571179817954    9.74354461345933    8.87405452235390
F        12.49343676619004    8.36259407537016   10.45120744971570
F        13.99711796706532    9.88128366071634   10.77264850805680

