94
CSD_code = SOSPIZ | q = 0 | S = 0 | Stoichiometry = C45H42IrP3S3 | MND = 6
Ir       -2.71403897256915    2.50346678141204   15.58957859976615
S        -3.68651765695608    2.06062045439598   13.38247233757897
S        -0.60928379243552    1.47926973376582   14.94248364957108
S         0.36143127763904    3.23704918261863    9.44763651189647
P        -2.70243157958800    3.29574524055923   12.17669951906145
P        -0.44431570544192    1.62239086039422   12.96861724455735
P         0.14101304621321    4.01523226220381   11.22125531094153
C        -4.64895560083729    2.40435245418385   16.44037542461595
C        -4.35288406744364    3.75081061970138   16.16104622382415
C        -4.03626403324572    4.76271131067044   17.24762090624167
C        -2.52576363394595    4.84330628884407   17.54290449052059
C        -1.78940079787517    3.57454797865719   17.16183019788950
C        -2.15531118924573    2.29760107811084   17.63716978462472
C        -3.32071807757276    2.08934036074843   18.58514983682229
C        -4.62702873665503    1.79500555059575   17.82478136581347
C        -3.20579709281322    5.00416891956593   12.55984528463577
C        -4.04940897503931    5.76077680559794   11.75942510723006
C        -4.43445647361358    7.02383053088301   12.17414115386712
C        -4.00201760517087    7.52302969209792   13.39060553950315
C        -3.18807999916578    6.75332602397792   14.20628959098989
C        -2.79144545725246    5.49778574040918   13.79216353425489
C        -3.33163098475069    2.97284791076679   10.49874888774191
C        -2.92151807145009    3.80736758390807    9.46572544849935
C        -3.32885995515537    3.55206029459038    8.17055311602578
C        -4.14601914862922    2.46499383767908    7.90468199241077
C        -4.56406612124168    1.64005816900850    8.93596597308652
C        -4.15582425665923    1.88694688549647   10.23387422828632
C        -1.32158828276674    0.27534488227850   12.10335409858726
C        -1.55058735298758    0.34794094306938   10.73471663040561
C        -2.18103957111137   -0.70215420654216   10.09281875728285
C        -2.59022682859816   -1.81241590299778   10.81230962390603
C        -2.36502785731713   -1.87972830349187   12.17807901308991
C        -1.72537105662399   -0.84027551129934   12.82567395752047
C         1.29629470452817    1.26033592452068   12.58267263580900
C         1.66877554960242    0.83239992018089   11.31374823480694
C         3.00025001986367    0.58177153502013   11.03715989320602
C         3.95954990059847    0.73327263568638   12.02342871421305
C         3.58271622690429    1.11433934834107   13.30037640230751
C         2.25574675754607    1.37406028970954   13.58237157234895
C        -0.34065050658973    5.77850736480769   11.13033730003423
C        -0.54349905751515    6.35701446245047    9.88416289198395
C        -0.89053332427481    7.69211711759209    9.78577787642819
C        -1.01488445429182    8.45922337400432   10.93127777486230
C        -0.76983129327668    7.89477265737554   12.17244437049495
C        -0.42860052628501    6.55996267813045   12.27537551619391
C         1.71237485733433    4.16943827756676   12.14024531369143
C         2.89048371765070    4.18669880699967   11.40747532040966
C         4.10257907441974    4.36780207596697   12.04729382323968
C         4.13870174580757    4.54473590796059   13.41977822244617
C         2.96343789013448    4.52707737986677   14.15322174971324
C         1.75042114034133    4.33709682546674   13.51933328989927
C        -0.94161483102387    3.27178604130739   12.45537014486159
H        -5.32338512654791    1.89368374090779   15.75401735777111
H        -4.82230276964942    4.17940959146630   15.27715404287706
H        -4.58514008297160    4.49378425285879   18.15055210697389
H        -4.39251883701600    5.74370486609775   16.93092523877931
H        -2.09187429438455    5.66958795768970   16.97884485033392
H        -2.35588076983542    5.05411722646742   18.60336462276369
H        -0.73177358956153    3.73434512921214   16.94959135109356
H        -1.36194582796269    1.55797133006055   17.72258590477450
H        -3.43507961591436    2.97560503257375   19.20979195133859
H        -3.09900354159727    1.25109169639178   19.24604880379327
H        -4.73810834534508    0.71592321471970   17.71463070265126
H        -5.49010126890821    2.15513097759111   18.39374335934311
H        -4.40438583553835    5.36893803038396   10.81691245141652
H        -5.08084645693050    7.61716850186846   11.54422623930372
H        -4.30890713689954    8.50875812243033   13.70802256535308
H        -2.86278719759562    7.13746786726849   15.16190827879645
H        -2.16521761241186    4.87476885403125   14.42324586689950
H        -2.28845418583050    4.65472299694669    9.68730610640332
H        -3.00143593216195    4.19715123551583    7.36907068669668
H        -4.45816205538679    2.26180167118339    6.89075961966689
H        -5.20659375772879    0.79631292997843    8.73063754419104
H        -4.47614894087547    1.24427122593269   11.04162150822953
H        -1.24396603449935    1.21930609957191   10.16946827213272
H        -2.35651126089203   -0.64444973232838    9.02860035440434
H        -3.08919977394125   -2.62688143288032   10.30774618966073
H        -2.68855106893219   -2.74345547253134   12.74010091641082
H        -1.54913654899186   -0.87784857807336   13.89264751910961
H         0.93075908828730    0.69665927644066   10.53903628436673
H         3.28447700918451    0.26706258848285   10.04415976354136
H         4.99897523452205    0.54168465562644   11.80093320474283
H         4.32361817925906    1.21229684769592   14.08006886958708
H         1.95728386869393    1.66426275256483   14.57943669837600
H        -0.41675277118290    5.75406598710509    8.99366741147756
H        -1.05752687477991    8.13364037930028    8.81414729109449
H        -1.28819411579418    9.50151632251584   10.85705644323339
H        -0.84277129693546    8.49865720065514   13.06505622272212
H        -0.22576359467213    6.12472462555879   13.24125814402792
H         2.84600998627319    4.04069367314607   10.33628501616232
H         5.01796618980750    4.37171365200110   11.47396787948412
H         5.08450098843301    4.69051154802009   13.92095000737800
H         2.99310031319774    4.65424830317016   15.22586792521249
H         0.83825268285478    4.28840777754413   14.09784003939226

