97
CSD_code = SOSPUM | q = 0 | S = 0 | Stoichiometry = C37H52N3O3SV | MND = 6
V         4.40084510667026    7.32438545771631   69.15747756443386
S         2.20641280376406    9.85724864847593   66.18255523465433
O         3.39597546554081    6.09232187129869   69.81736724787523
O         4.15042293170013    8.70192325062095   70.10294316140639
O         5.78731889987978    6.83439930026001   69.61504849921110
N         4.60710444487490    6.14089926758363   67.53855516474498
N         5.28655191813921    8.62223070219262   67.82461826073823
N         2.70357176935331    7.92005457986188   68.08930564570498
C         2.60165925005086   -0.15946935106917   70.08126943364353
H         1.98107518137733    0.11595418799334   69.23136337071834
H         2.10074405895193    0.16661182353248   70.98819190221195
H         2.68565003926943   -1.24364821112858   70.11098319915128
C         4.85074285720389    0.11145270089775   71.16916922217465
H         5.82627018292600    0.58696814277647   71.09641722753501
H         4.99339339047525   -0.96583149529790   71.21968553280806
H         4.38270535883622    0.43533869611024   72.09424308690812
C         4.66652346957822   -0.10816808891571   68.70296200286610
H         4.08277330387012    0.10054320149249   67.80957065262997
H         4.74726652391749   -1.18824844112445   68.80612281216575
H         5.66937375116944    0.29292629500707   68.57800439343139
C         3.99344838069579    0.47423565366694   69.94854288583777
C         3.44101901030427    5.70709422254147   72.77796943736048
H         4.29219558323396    5.15494091794959   73.17318613694005
H         2.98484660354733    6.26777791076509   73.59100934266887
H         3.80940787793627    6.40800496171487   72.02929538392607
C         1.98666024197638    3.76057503100878   73.27846307329689
H         2.83673080048680    3.21862632867474   73.68653360445425
H         1.24778609021406    3.05048530600889   72.91370760580038
H         1.53262108328014    4.32693490613574   74.08894496315578
C         1.17081675105525    5.47556792526312   71.68515497666198
H         1.41815097483641    6.18561102751842   70.90033836618920
H         0.70895466583086    6.01620327155320   72.50842424035649
H         0.44649577198429    4.76546509743102   71.28935626461617
C         2.42095743730850    4.73104384751484   72.17434252810078
C         3.06892833192262    4.03114955267499   70.98816138834178
C         3.25006529770779    2.66635301196554   70.94677506929325
H         2.91122459358189    2.08019206528099   71.78363539297109
C         3.84966532435787    1.98651747438007   69.87620511511273
C         4.27899426887905    2.73987111070579   68.80988139769335
H         4.74488051980489    2.27882937994523   67.95353895151156
C         4.14699526158325    4.13771443717250   68.80137581993256
C         3.53471929934318    4.81155409554087   69.89267818988112
C         4.56564980504098    4.86750008200633   67.64428794114708
H         4.83968423708083    4.23941773972288   66.79318370351307
C         5.00871853522014    6.79926991164594   66.32043509833143
H         4.11021630643862    7.27794182467321   65.89995595127199
C         5.65718153057433    5.92699736696382   65.24169736766594
H         4.94796371085545    5.17334837551477   64.89278040791852
H         6.53264144438622    5.42322258193353   65.66050593597210
C         6.08218401963041    6.78621272923046   64.05374976060358
H         6.55285864091258    6.15417724148532   63.29863380514479
H         5.19952065920638    7.24568547590703   63.60420858749577
C         7.04840739775041    7.87557856296652   64.49969083558987
H         7.34771178528686    8.48106313883739   63.64264499661389
H         7.94762336228276    7.41951045061671   64.91977526395051
C         6.39005499335071    8.76756374068130   65.54765577355461
H         7.09735911121645    9.53962213899156   65.85869850108747
H         5.51059693252674    9.24745834102102   65.11061967366885
C         5.96545650833171    7.93218990414518   66.75718642843417
H         6.84980989322639    7.46014561940522   67.21519787903424
C         5.11534118143737    9.88872491562780   67.82096140629331
H         5.50526088861758   10.49855431926551   67.00368836657857
C         4.46354569938963   10.63649968883997   68.85498123741401
C         4.30717134219678   12.02034893775925   68.70518438678070
H         4.65071023848074   12.46201449282579   67.78389049051333
C         3.71724272020125   12.78353042476311   69.68679592762398
C         3.31901595590358   12.13020190611756   70.86036294120434
H         2.87722248627491   12.72626810587468   71.64044859551483
C         3.45680357047232   10.77417626558501   71.07159377949947
C         4.00925914707802    9.98355290322806   70.03041479309499
C         3.48634813762614   14.28075332488338   69.55666248269904
C         3.97832606715436   14.83081124938238   68.21551855005454
H         5.05009490712661   14.68471303753030   68.10200287666142
H         3.77811993232345   15.89917231690466   68.16622130262314
H         3.46142149455233   14.35367918924292   67.38668070425010
C         1.98099479991477   14.56085534702522   69.66495667966726
H         1.58771693421858   14.25571384523556   70.63065991185516
H         1.44403534146128   14.01740777791762   68.89086984656456
H         1.78748865114504   15.62398541421377   69.53931576197274
C         4.23691199492001   15.00981639733553   70.67989841450543
H         3.87489898954004   14.71220287800813   71.65994446137789
H         4.10327633017582   16.08491090800643   70.58123520519521
H         5.30063079017660   14.78758672615819   70.62720431085552
C         3.03000682992629   10.09735132447831   72.36625770820811
C         4.25127482367929    9.39540821184123   72.97957866251096
H         4.67915974671267    8.66694977965776   72.29157544848536
H         3.96562308941836    8.87937981107451   73.89379059959523
H         5.01815576102795   10.12905293188790   73.22308874082815
C         1.92621103025553    9.08065989305683   72.04890514274915
H         2.27563441234682    8.33910212301842   71.33345872832209
H         1.06140349227411    9.58780382786095   71.62402882492583
H         1.61600522364980    8.56950727140995   72.95774931366786
C         2.48460125305744   11.08579321258395   73.40267105393377
H         3.23067600568511   11.83143476478372   73.66831431237350
H         2.21918272251426   10.54187648758770   74.30686809884689
H         1.58921455227675   11.58545062814139   73.03993744531761
C         2.45922970603074    8.75030406138028   67.29520182725832

