87
CSD_code = SOSSEY | q = 0 | S = 0 | Stoichiometry = C42H36O4P2PtS2 | MND = 4
Pt        4.12555146518905    4.61276152875257    2.82575996521637
S         4.43852650186320    2.42723261344626    2.10262173253833
S         2.14443343961564    4.65645520223091    1.62652567272718
P         3.61549992484363    6.73086419225247    3.60282413285453
P         6.23697799297640    4.44087781685233    3.76102591573292
O         1.96993213508484    0.47949391981738   -0.16326477037003
O         4.10908419077854    0.17129082216130    0.46851805637053
O        -0.18279910009387    2.53334693551574    0.30571990890033
O         1.13419954063026    3.31000276496603   -1.28426094665454
C         2.97489380264234    0.88427709827679    0.38290113287140
C         3.07463894740624    2.18043706936282    1.04135834912258
C         2.11378902758741    3.11335410531664    0.85477017807991
C         1.00001001082975    2.96384231785180   -0.14245975102100
C        -0.28889994013331    2.03457856716086    1.62355430982827
C         4.08600687296693   -1.09828992591697   -0.15562811808114
C         1.51965475360333    7.76573305226550    2.14944154191511
C         0.21333883922832    8.14943782626668    1.91863923326173
C        -0.72333548275818    8.06838569227224    2.93702279301239
C        -0.35012354079923    7.60028352768518    4.18557746169764
C         0.95618508447695    7.21048672360452    4.42337062829623
C         1.89982503317707    7.29971938608658    3.40688134488940
C         5.55297734621272    7.87120722125194    2.00392630806853
C         6.26202527732939    8.90827928853424    1.42500127971039
C         5.93973526279495   10.21890775864307    1.73708713339939
C         4.89856353840498   10.49102754995696    2.61173546425258
C         4.18457322292596    9.45682504886194    3.18878557241030
C         4.52542353896868    8.13839689972875    2.90056013272855
C         4.35944871350566    7.86924312045034    6.12075709712511
C         4.45860916979795    7.78846155006021    7.49947387202929
C         4.05504153701711    6.64477998276971    8.16682180006454
C         3.55997361779870    5.56310604288046    7.45496224502344
C         3.46401995748785    5.63829282390712    6.07974417072083
C         3.85237993471316    6.79445325429738    5.40542014055710
C         7.25261715579220    6.82075799531680    4.78455748791335
C         7.69277087286346    7.67329194610663    5.77836551031709
C         7.70690315939150    7.25291798660028    7.09844479646922
C         7.27192293747858    5.97849093403618    7.41952101545245
C         6.83046003745209    5.12121776131475    6.42789838433422
C         6.82701928748339    5.53258594327491    5.09982989628688
C         8.86021352370110    4.88398868796291    2.82766107977271
C         9.80179744768910    5.02587653825247    1.82473282194751
C         9.42171261353910    4.95130801730401    0.49346109298108
C         8.09439975793782    4.73546365414811    0.16114184783056
C         7.14905117078687    4.59215249400087    1.16035050261024
C         7.52519569486070    4.66337248277420    2.49760324351814
C         7.71998967972413    2.06874002042504    4.23401251054837
C         7.86289331428705    0.80758575582461    4.78745013797950
C         6.84769181752072    0.25870794973919    5.55190728767426
C         5.67581850568246    0.96870741044721    5.76106131086403
C         5.52599809062317    2.22455489875495    5.20665298201379
C         6.55054629262224    2.78533381283664    4.44728184460563
H         0.03848034457887    2.77332531497925    2.36048742241496
H         0.29921135904566    1.12002660665169    1.73080517925251
H        -1.34380521837239    1.81176369054422    1.77176403755894
H         5.00200280005546   -1.60167883340147    0.14428672851634
H         4.04955561317163   -0.98433876139165   -1.24164315652826
H         3.20906659822747   -1.66544210222924    0.16507780744711
H         2.25329100358615    7.81419986773326    1.35634444112238
H        -0.07801057183888    8.50374308985499    0.94131725933014
H        -1.74568786163988    8.36457908924763    2.75527761662716
H        -1.08083972797236    7.53244659545315    4.97841183135051
H         1.24105555087709    6.83919240414687    5.39776180822459
H         5.77368215012231    6.83782692978874    1.75718851004117
H         7.05910731166820    8.69486286287122    0.72793274395584
H         6.48984813249203   11.03195410279873    1.28712142249402
H         4.63785364676075   11.51482069221569    2.83702754032406
H         3.35205488192503    9.66636340546781    3.84662978863492
H         4.68720970866161    8.76023992506460    5.60644840901082
H         4.85377799207859    8.62554545032559    8.05586817453985
H         4.13191985900643    6.59303515410295    9.24262617560836
H         3.25237257839412    4.66739759169566    7.97432202588120
H         3.08383697216203    4.80354345485435    5.49508533502639
H         7.24852027219304    7.14798386008758    3.75459654700970
H         8.02826497527942    8.66742884967603    5.52138653898884
H         8.05697257847094    7.91699944615869    7.87451594765350
H         7.28002935418258    5.64777318049409    8.44759212293508
H         6.49797754958267    4.12549985542584    6.68318176552226
H         9.15594584205632    4.95030271192965    3.86597617354498
H        10.83746598578933    5.19440089072878    2.08198888226387
H        10.16271225332367    5.06274697136429   -0.28427755623007
H         7.79646161405371    4.67828413046767   -0.87506282958801
H         6.10527984559023    4.41693878147567    0.91408451774880
H         8.51045832511062    2.48314861905795    3.62554475512118
H         8.77001342294500    0.24755746194195    4.61313904638668
H         6.96389227017530   -0.72804656548531    5.97530570067782
H         4.87686840505303    0.53561799885888    6.34492960986731
H         4.60389220749344    2.77955121067746    5.33284993713250

