27
CSD_code = SOSTIF | q = 0 | S = 0 | Stoichiometry = C6H12Cl2N2O4Pt | MND = 6
Pt        2.91040950390397   -2.69423463858607    0.80034925555610
Cl        2.27290471507062   -2.92340461753887   -1.45388408682552
O         0.92210016145302    0.80448100599904    0.67898312439469
C         0.96062195472796   -1.04668753785409    3.45723302836484
H         1.08995450684272   -2.02215862992996    3.92443145402411
H         1.89144139667357   -0.48684451680285    3.53932127870263
C         0.10318955538216   -2.56373839032770    1.60485326280154
N         3.34951248807797   -4.78077856407622    0.79744193292754
H         3.57534021740338   -5.12711424431139   -0.13456660346001
H         2.45370601627338   -5.18835701856366    1.07985389480386
H         4.05982850660898   -5.05581247772442    1.47499509274791
O         1.10784657410727   -3.36071708126200    1.35363455531043
C        -0.86020019240209   -0.36210118628578    2.47902209628110
H        -0.98585725405176    0.59488414226884    1.97824725956667
H        -1.76607843423921   -0.95507840843853    2.37764158159750
N         4.78649275269627   -1.95626459554495    0.10558291393140
H         4.60682850045532   -0.95077834821027    0.03356293940362
H         5.02095048558224   -2.30360753585428   -0.82387373547565
H         5.55550302689471   -2.10301154730138    0.75863383646163
O         2.43402727521483   -0.75382764894942    0.71353374119693
C         0.39390489931623   -1.11758391090038    2.00666668790006
C         1.25593680532772   -0.29700665599819    1.04686683623213
C        -0.29229145648116   -0.28264325357905    3.90302978348344
H        -0.09124632347855    0.72939878474431    4.24652439835295
H        -0.88500412433445   -0.80271745107844    4.65189882620361
O        -1.01884620871596   -3.01212677848312    1.61959153478150
Cl        3.82702465169007   -2.62666889541203    2.98212511073613

