40
CSD_code = SOSVEB | q = 0 | S = 0 | Stoichiometry = C19H14N4NiS2 | MND = 4
Ni       12.50164845294429    3.47735626749890    4.01103710946893
S        11.94775828775773    2.74692203451726    5.94450253382066
S        15.10243113865602    4.98517086930817    0.86735886185576
N        14.27474933351512    3.77235023726245    4.46066355043911
N        14.99062571673362    4.26881450950311    3.43243358958928
N        13.05091039852499    4.00783350974849    2.16355330749782
N        10.66998606826500    3.35169154490544    3.52802815488169
C        14.96220104072220    3.62633134407108    5.56326339632621
C        14.54237253990772    3.12200914971360    6.82270510019754
C        13.22715922405018    2.69590335110716    7.09884826925523
C        12.91358711987900    2.20432953824808    8.37066329424150
C        13.86895892820933    2.13040017521132    9.35505963484925
C        15.17316928466712    2.55329999837106    9.09600913934169
C        15.49735637155179    3.03913386669484    7.85516436650495
C        14.33238261913905    4.37027381729991    2.31106022085444
C        13.60269783296672    4.70653425231087    0.00597634635066
C        13.34939239178304    4.94198775131868   -1.33057330649057
C        12.09792283514094    4.62924056898509   -1.83097336016846
C        11.12986406802000    4.08040250966939   -1.00033471098896
C        11.38079927819432    3.84592786035385    0.33741223894564
C        12.62729071548565    4.16829901927784    0.87002645969166
C         9.97699443327214    4.48424253936603    3.40334315634396
C         8.63088528031780    4.50029047696440    3.08504956320700
C         7.97420723743961    3.29518245051526    2.88862884516495
C         8.69603426343542    2.12022380172342    3.02364478429237
C        10.03987110030424    2.19191436135218    3.34864453487061
H        16.00356216060203    3.93227051624005    5.49110446252701
H        11.90007176988079    1.88287424550421    8.55735053085757
H        13.60924792028738    1.74584293977346   10.33008423587858
H        15.92266648896331    2.49702634607011    9.87084950893204
H        16.50569619749043    3.36682744447603    7.64762503694950
H        10.62158239162443    3.40069950505452    0.95984553077575
H        10.16146698414097    3.82642236659773   -1.40583245494026
H        11.87845265672907    4.80466907555777   -2.87276406614313
H        14.11867603777346    5.35633842985064   -1.96270295806763
H        10.52122238131241    5.41014388998195    3.55772730480424
H         8.11058837920326    5.44025008728475    2.99297735205302
H         6.92462555754076    3.27337402746739    2.63765467508103
H         8.22802605063287    1.15915474911349    2.88192298289168
H        10.63295906293474    1.29364057173040    3.46896277805810

