52
CSD_code = SOSVAX | q = 0 | S = 0 | Stoichiometry = C26H20N2NiOS2 | MND = 4
Ni        1.45386782828322    1.87152296783725    1.10710408043190
S        -0.42929608017378    2.75716695107212    1.71148279042156
S         2.16236873338948    1.90594389378765    3.15662344149963
O         0.73218913167971    1.27096624828727   -0.56259945629154
N         3.28508333493222    1.46390309784271    0.47685374682389
N         3.49082577073378    2.02786974997925   -0.75289933855712
C        -1.43451955259255    3.04652752313636    0.35541267299236
C        -1.29983007204384    2.46580272330012   -0.93264993659619
C        -2.24213343877453    2.78387524282986   -1.93376889355702
H        -2.11872336947602    2.33358792535649   -2.90856410940859
C        -3.27393681406678    3.64712544182535   -1.69354828322269
H        -3.98138539226528    3.88920975402306   -2.47160766244627
C        -3.41257265724588    4.21392226393686   -0.41939235190973
H        -4.22973852142675    4.89223807649234   -0.22323200159309
C        -2.52286537128205    3.91328718059881    0.57591549186653
H        -2.62813800430211    4.34427650825607    1.55965299505781
C        -0.25405489004420    1.55762470983770   -1.24979522090492
H        -0.34232611690819    1.05901436622862   -2.22884614533512
C         3.27240148754774    0.58689829211108    3.30887259625384
C         4.10435678221027    0.08695519527402    2.28155376022197
C         4.98420135459764   -0.96607972996529    2.57748234458685
H         5.61103479435494   -1.34912969143795    1.78396768648896
C         5.05455227007477   -1.51686033753765    3.83415883212950
H         5.73088809619064   -2.33382631112257    4.03420519179801
C         4.25091553140754   -1.00441469017291    4.85026047349369
H         4.30360763356690   -1.42350086683252    5.84407906689853
C         3.38501223735199    0.03088214913027    4.58976075578162
H         2.75962020316111    0.43399694348521    5.37164101680008
C         4.15505394280490    0.64731387889121    0.96517069951749
H         5.02685121959994    0.37592514499498    0.36940097314261
C         4.24206392625689    1.38319705063922   -1.75405252960399
C         5.14839708713775    2.12323797872086   -2.50930191896545
H         5.26752875007826    3.17774420410463   -2.30963431238352
C         5.87869012701693    1.50573444307680   -3.50724801019551
H         6.58017245964444    2.08359138753159   -4.09008887389182
C         5.71979753277628    0.15178906836147   -3.75462096845911
H         6.29588786769434   -0.32788757542371   -4.53105970320874
C         4.81610118694541   -0.58457657250337   -3.00551909501828
H         4.68031346530343   -1.63750952887368   -3.20258539519266
C         4.07496192993374    0.02412910457203   -2.01079484483978
H         3.35604842978281   -0.54230667868481   -1.43677203396308
C         2.72983389804874    3.16257805909736   -1.06158719618664
C         2.29049211198714    3.40113878318045   -2.36333870935433
H         2.57516086497779    2.72669222016941   -3.15720476998636
C         1.46489719003239    4.47684441671151   -2.62936997452961
H         1.11927441476963    4.64130834182260   -3.63924050360863
C         1.06042438873744    5.32523835419571   -1.61163982473196
H         0.39715210068204    6.14938390096448   -1.82400630227428
C         1.51828011916704    5.11313763216929   -0.32188109754011
H         1.22768708856250    5.78237267803307    0.47368482633686
C         2.35262085542183    4.04418401523431   -0.03613120758459
H         2.77040413375398    3.94145411545800    0.96659722879563

