57
CSD_code = SOSWEC | q = 0 | S = 0 | Stoichiometry = C27H25FeOPS2 | MND = 8
Fe       -1.44231781429043   -0.98599815612770    0.08581868554071
S        -3.91949880062741    0.42957497596234   -1.18002377636241
S        -2.16350765059717    2.04663571969687    0.56953694742573
P        -1.00282597256430   -1.02582013453940    2.19935142801397
O        -3.61039599160657   -2.86580726764230    0.28430193563158
C        -2.74462672057735   -2.11282037541539    0.23959493502567
C        -2.89129030675673    0.38776210702262    0.30894269253864
C        -4.30062731646158    2.21333747264899   -1.06903654279486
C        -2.99236345966906    2.91838539361495   -0.80774796077571
C        -2.17577588816597   -0.28490573850626    3.38618308921385
C        -1.92068840735922    0.82690200457893    4.17784928580145
C        -2.91318769806385    1.32997686376919    5.00274693675479
C        -4.16162875258289    0.73417848215636    5.04089629751319
C        -4.42172573319009   -0.37794252195574    4.25428493544202
C        -3.43584180816646   -0.88265083828056    3.42966397024697
C         0.59444387832641   -0.28949306420191    2.68487013493099
C         0.78237654692133    1.06326925556485    2.40510519366382
C         1.98626312442967    1.67561757504033    2.69693461787341
C         3.02189507701923    0.93939692274447    3.25157470574420
C         2.84904215278558   -0.41014672701945    3.50720558748180
C         1.64223825925527   -1.02695984455997    3.22350587162909
C        -0.88576654555144   -2.69627746853775    2.92903167636680
C        -0.79913285297899   -3.79901455310341    2.08933194221471
C        -0.70673771521405   -5.07374816408386    2.61974770141970
C        -0.70036776051667   -5.25255761768911    3.99310137250202
C        -0.78433054524709   -4.15525862257190    4.83633858793240
C        -0.87615819242879   -2.88057802584891    4.30964569324340
C        -0.32466631269559   -2.18989513289082   -1.31793429486725
C        -1.05386902897702   -1.20597714686360   -2.03509347221027
C        -0.54668519642704    0.06055286374180   -1.67132675437392
C         0.42225013914663   -0.12171967965813   -0.67805335131229
C         0.57491884501138   -1.52488458997456   -0.46637951745386
H        -3.56678165764875    0.23716544023047    1.15744932042257
H        -5.00456935338778    2.36426297121997   -0.24893506575636
H        -4.75343273932087    2.51748653912366   -2.01071148785313
H        -2.34052302353669    2.88316905503274   -1.68143807434297
H        -3.13211394922110    3.95220953267933   -0.49522455802923
H        -0.95015660088311    1.29978092575135    4.15656053043143
H        -2.70854867820807    2.19524435601758    5.61634026329927
H        -4.93326812029017    1.13486172725945    5.68163676131692
H        -5.39507709804668   -0.84556791463250    4.28067577498808
H        -3.62698043976942   -1.74815809863050    2.80811379581651
H        -0.02301599455912    1.62211313965561    1.94836676540376
H         2.12123869126222    2.72627105180119    2.48451619776788
H         3.96507879774874    1.41568547045960    3.47549792278682
H         3.65912904970058   -0.98864706655893    3.92735585092098
H         1.51806604137586   -2.08240997383663    3.42048024585555
H        -0.81771137969861   -3.63880938560627    1.01991984255622
H        -0.64403663585588   -5.92878442430534    1.96278799711673
H        -0.63258474928200   -6.24720587737403    4.40848154614878
H        -0.77987458253304   -4.29545709279831    5.90750764589112
H        -0.94202200183468   -2.02154644873805    4.96392232910081
H        -0.39633091789377   -3.25435847879588   -1.46915908932770
H        -1.76129868069365   -1.39744111991947   -2.82378285712309
H        -0.84059988419381    1.00089870693295   -2.10491446500960
H         1.05205371985058    0.64246649891595   -0.25702736126810
H         1.33984863476203   -1.98306350095822    0.14171161489809

