122
CSD_code = SOSWIH | q = 0 | S = 0 | Stoichiometry = C46H68HfN2O5 | MND = 7
Hf       -0.00059166718961    4.15012992074464   16.60586153342501
N        -0.54989178160882    2.59386903435216   15.37801156592179
N         1.49808133098367    3.99509697984333   15.23501698931579
O        -1.92716332913367    4.07718966046849   16.88766106199834
O         1.33962375302459    5.41349143856605   17.34780057615887
C        -2.64520728938493    3.20287116732354   16.16158540860984
C        -4.03727932052833    3.09316296355047   16.21054870905361
C        -4.66310393295772    2.20220452487922   15.33718166812848
H        -5.73217821630192    2.11428962596008   15.38188109504225
C        -3.96490774824077    1.45657749093424   14.40155424340607
C        -2.57785692572400    1.56095695539434   14.36957808833314
H        -2.01544244982069    1.03043858229014   13.62048900438298
C        -1.90247012363523    2.37988396343210   15.26715027617722
C         0.46724821253447    1.96862799696693   14.68493180087983
C         0.50147456065693    0.67823778949199   14.16914681153353
H        -0.36458720923232    0.03738090541196   14.23447922919346
C         1.67157152306768    0.16896608228780   13.61346606925558
H         1.67415828945567   -0.83470818772803   13.21309248624537
C         2.82444499978228    0.92721274137688   13.59908514277206
H         3.73811037993331    0.52010823830974   13.18997316871056
C         2.82673288447878    2.21481793976890   14.12240337795923
H         3.74876419174800    2.77515428197982   14.15092267211819
C         1.65963660578991    2.76494943228675   14.64300537890296
C         2.36713261873114    5.72621838238194   16.54188246917145
C         3.32444153454553    6.71518047471738   16.79973372387327
C         4.27717621082993    6.99042780037160   15.81649660800626
H         5.00269074738808    7.75599352039273   16.01728554173947
C         4.32012393619702    6.33599105587044   14.59693737648949
C         3.40243753819430    5.31424408868324   14.37028413112305
H         3.38709724358934    4.78402047904099   13.43091835470186
C         2.46669866870333    4.97733759819182   15.33711316845232
C        -4.83436052852638    3.95952557013414   17.17943703728280
C        -4.61100950050626    5.43344116792177   16.80873012638158
H        -5.07879918293974    6.09016011397817   17.54126684768798
H        -5.04776609431595    5.63795940145580   15.83251667184028
H        -3.54800039190418    5.65344427081022   16.76083594032702
C        -6.34193651098855    3.69030712688402   17.14425325779131
H        -6.83646454038677    4.33137859391686   17.87267496033406
H        -6.56267841688000    2.65671771574775   17.40034615943656
H        -6.76051823719830    3.91082875547984   16.16514198669211
C        -4.34492816881587    3.68242980451900   18.60821536011236
H        -4.82495755094928    4.35745105764876   19.31587208378362
H        -3.26864182448970    3.80858870431999   18.66896211632963
H        -4.58671460641352    2.65839161048064   18.88828677837791
C        -4.65215053415071    0.53377446974147   13.40304681353575
C        -6.17246111588683    0.48762010330538   13.58091687067711
H        -6.43848084665677    0.12568456077058   14.57127264409532
H        -6.60382620228443   -0.19088394208482   12.84673381104747
H        -6.61389263651303    1.46988166816124   13.43023109618239
C        -4.11416058216419   -0.89365860302953   13.57686393829202
H        -4.29078729743724   -1.23876189977908   14.59364706791982
H        -3.04662678118192   -0.93860687166509   13.38232755180623
H        -4.61389900831786   -1.57304341298158   12.88851149231318
C        -4.35595630281217    1.02632375455042   11.97936676500486
H        -4.83921834839251    0.38151283898675   11.24738987219666
H        -3.28831128786216    1.03071645199613   11.77923904252572
H        -4.73010476971132    2.03982812110833   11.84919944346723
C         3.34046934470493    7.44592882980951   18.13872615035566
C         2.02469095282878    8.21522785196958   18.30908396771850
H         1.19061998856920    7.52682517681750   18.22136696767662
H         1.93491420940434    8.97933022413961   17.53814285582508
H         1.98534666735242    8.70182243682432   19.28320339866326
C         3.48059947539205    6.39492941629140   19.24851773852152
H         2.68810972194713    5.65867684778228   19.15515754824025
H         3.42923935746202    6.85962802710410   20.23275120428699
H         4.43736217569226    5.88415607606190   19.15699827517820
C         4.49298540980065    8.44376469250859   18.28469742304494
H         5.45631024379277    7.94942496852904   18.18582200472190
H         4.44838731802607    8.89825214188605   19.27355177661772
H         4.42298649685661    9.23978892660777   17.54694274175936
C         5.32535397901198    6.67813723267194   13.50555661688945
C         6.16405577516365    5.43387134112222   13.18110714721183
H         6.90434310952755    5.66460682548008   12.41701613494121
H         5.54075904706792    4.62274103033934   12.81587816609094
H         6.68317138187745    5.09001623862559   14.07350106993129
C         6.28403494971224    7.80221669988497   13.90805037265747
H         6.97339773635042    8.00237340307142   13.08946551019019
H         6.86995683228179    7.52145137136096   14.77999115621292
H         5.74224128723434    8.72021635565618   14.12368963854791
C         4.56564949730074    7.12919746963550   12.24960497596752
H         5.26490114967767    7.37990296539586   11.45391627779494
H         3.96432690755745    8.00895395507004   12.47161107213495
H         3.90484786291591    6.34613038273411   11.88851179406240
O        -0.69704203312072    5.99960253802213   15.37199591268071
C        -0.00103297492698    7.19698220884485   15.02560201114046
H         0.94983454753593    6.95625872033081   14.53220709294206
H         0.19986419943667    7.75279236909788   15.94152535460826
C        -0.94916311283907    7.90991236978355   14.06292719235201
H        -1.72078137366436    8.43794928000451   14.62279345612704
H        -0.42776664421964    8.62065642652085   13.42702629994825
C        -1.55842315493951    6.74198321721449   13.27584010893863
H        -2.63015766363243    6.86960228392477   13.14005596965135
H        -1.09919661743423    6.64619264127759   12.29385043691187
C        -1.24286214510446    5.50716716350086   14.14234929789380
H        -2.12980267089553    4.91855301194910   14.38879125868879
H        -0.50218981852516    4.85951660801613   13.65101354720713
O        -0.60394956180710    4.70892490341337   18.98371204142164
C        -1.27128674528251    5.97779816148644   18.94580861970712
H        -2.27549674546304    5.81857500354729   18.55207466965014
H        -0.71898504465975    6.63863447109618   18.26523139688783
C        -1.26747014329606    6.51681206838834   20.37290733415340
H        -2.11577918304408    6.11896267091986   20.93168793163693
H        -1.30212355864805    7.60314607006442   20.40195594729654
C         0.04021346381870    5.94502124439068   20.90973775437342
H         0.87979879075141    6.55038487225943   20.57263430247309
H         0.06459660598729    5.86861714076800   21.99459291116037
C         0.07652013522176    4.57673384043141   20.23405250950763
H         1.09526492938322    4.22785568806704   20.04746540593149
H        -0.45532676631491    3.82895759969305   20.84047329416018
O         0.81689867551805    2.57898920709743   17.97990597964906
C        -0.10508986870932    1.57811386055130   18.40517562313761
H        -0.01012578440636    1.44263748574304   19.49319172843755
H        -1.11234765396415    1.92513381033502   18.16099307456183
C         0.30748794545961    0.30521494947721   17.66405948240982
H         0.06885441959782   -0.58832612104986   18.23694470690404
H        -0.20086518155648    0.25164096682066   16.70381616099274
C         1.82076435151678    0.48476867266850   17.45632046550710
H         2.39800712993817   -0.20682290263575   18.06775650420850
H         2.08625154293594    0.33003951913944   16.41274377406118
C         2.08876045974783    1.93779742156982   17.88102631513943
H         2.69016013125960    2.49525800322805   17.15999587356703
H         2.58021227264364    1.97265760678757   18.86443280223114

