27
CSD_code = SOSXAZ | q = 0 | S = 0 | Stoichiometry = C6H14MoO6 | MND = 6
Mo       -0.56456087413812    2.46365968633192    3.45325476007670
O         0.51156464745120    3.53090197551054    4.09643038635467
O        -2.00876718295705    2.40940931952649    4.24682568110833
O        -1.76132310288899    0.42034995340229    2.10969509786444
O         0.21194023719305    0.86432842893164    3.74231700316107
O         1.23385132481418    2.15161011937162    1.42794528342174
O        -1.08081246844727    3.24479051734129    1.90519960120408
C        -3.08223330895737    0.80726187285869    1.77962476726591
C        -1.70626987626141   -0.43824467211430    3.23450129199888
C        -0.24063326944227   -0.44371313155699    3.69195318103424
C         1.97368914907392    1.01323830737111    1.05496316347829
C         0.64050669849172    2.82985557365287    0.34677810152857
C        -0.27110564635173    3.88665520620099    0.98255630116351
H        -3.00962145793470    1.45063271604699    0.90351296422090
H        -3.53684490009729    1.36707648194285    2.60363680345097
H        -3.68971126677680   -0.07564855951136    1.54439458893899
H        -2.33110707556863   -0.03130035553104    4.04269696008927
H        -2.04944401894533   -1.44819420290928    2.96084149443591
H         0.37215179134021   -1.01180297113690    2.96987840616210
H        -0.15727790839518   -0.91569251233846    4.68547580247113
H         2.37954141159813    0.59655089231953    1.97542360962667
H         2.79640859875479    1.28903557388618    0.38287297417988
H         1.33716673989043    0.27061456605652    0.55567067055546
H         0.03534041055343    2.12858715033660   -0.25331615266884
H         1.40751948001515    3.29336164398800   -0.29222716681706
H         0.35487998028390    4.63296417081954    1.50513532824549
H        -0.88574811229814    4.37881224920565    0.21015909744819

