58
CSD_code = SOSXOO | q = 0 | S = 0 | Stoichiometry = C21H31ClN3ORh | MND = 6
C         3.72702322846894    3.69648468761657    3.31437601779007
C         4.02457276919135    3.77982917162148    5.51622641944145
H         4.27662231825860    2.89329363913708    6.10289423531829
H         3.52944316009740    4.50793377421851    6.16179502045606
C         5.25086508666870    4.35994653232894    4.75594093116453
H         6.14244524909609    3.74783404667442    4.93294777437281
C         5.61790186908551    5.82626257578543    5.07826528278654
C         6.82555788283554    6.19917810213770    4.21436111364930
H         7.68667929671005    5.58972507428459    4.47778306579028
H         7.08565075253418    7.24483431555065    4.35930714238788
H         6.59564998914580    6.03198652242807    3.16623192307283
C         4.45785073456260    6.76776077977331    4.74940091086814
H         4.74492596763823    7.79536582999849    4.95887349187168
H         3.57339014658548    6.53853457035778    5.33965354492177
H         4.19838196580109    6.68934906930862    3.69644281381636
C         5.99444999325415    5.94728860795756    6.55598459656182
H         6.80277487793320    5.26235565267092    6.80233901914933
H         5.14961407377168    5.72541324328874    7.20352237157530
H         6.32806593709459    6.96003566049635    6.76907226621673
C         2.96661606932418    3.41977220222233    2.05551330017199
H         3.67467390962303    3.31705534683310    1.22943009798557
H         2.37089895505118    2.50074813552996    2.16480908975885
C         0.70278574004792    4.37777516245741    1.83258083576564
C         1.25332573044785    6.44083136775794    1.19253290584051
H         1.09914031608041    7.45204053959192    0.87876750925137
C         2.40264574995157    5.75826035570132    1.39549552790833
H         3.42708283222687    6.05180981609058    1.29421351516155
C        -1.18885163718039    5.84552727463715    1.25612005746772
H        -1.71369437084422    4.95572249418750    1.64647882020655
C        -1.63095748421500    7.08583637896287    2.02569780192558
H        -1.35435592179040    7.00223701632432    3.07435290862768
H        -2.70991282751452    7.19345835911141    1.95929571521717
H        -1.17318164869024    7.98268563976214    1.61454743985266
C        -1.47138346767270    5.95506729673557   -0.23982771441862
H        -0.93559670595805    6.79535558871909   -0.67605896033608
H        -2.53552670142137    6.09169650999962   -0.40954146939936
H        -1.15351786071929    5.03809544551264   -0.73160966672830
C        -1.25580217407911    2.98865139493061    3.96075587401049
H        -1.44843563687286    3.98819869686193    4.32839957061518
C        -0.07071938298783    2.26709063254589    4.12560888588646
H         0.82400165880002    2.61035998819880    4.62622883074469
C        -0.46315173786306    0.79009147634336    4.05037552947710
H         0.25710987598555    0.07152853282379    4.43396907515769
C        -0.84230225326099    0.66587816816506    2.57403082661094
H        -0.43839269241111   -0.08598357415321    1.90797863977075
C        -2.01032411886750    1.37677194638139    2.41152110437503
H        -2.71317057352629    1.29880067145862    1.59182723186210
C        -2.36331712336388    1.94637089493430    3.78683287086681
H        -3.38612495801184    2.28776294435214    3.92833384612043
C        -1.85415545422638    0.82215919879294    4.70070135337241
H        -1.82853579290017    1.10452782663642    5.75400939700092
H        -2.40565484475471   -0.11114473340116    4.58016994011495
Cl       -0.14881020180622    2.46759097796967   -0.14953117780690
N         4.87768158836852    4.20902946180861    3.36428503907238
N         2.04501951918808    4.49225854103897    1.78084113136365
N         0.22146302177962    5.58058723961925    1.46537099291651
O         3.11762231950379    3.40175343448033    4.48609117283667
Rh       -0.34945701416911    2.69942949444272    2.08678421015940

