79
CSD_code = SOTBUY | q = 0 | S = 0 | Stoichiometry = C30H42O2PdS4 | MND = 4
Pd        1.86340473870372    0.61661375456000   -0.75053535165840
S         2.38219910253255    2.88006740065669   -0.79215366329394
S         3.47762523065213    0.84672409619363    0.89891866465196
S         1.33053555415658   -1.63973035547164   -0.67629445182734
S         0.23898028750268    0.37125557984515   -2.39383298689840
O         5.50599883664881    6.34725536158251    3.99098279607695
O        -2.08810657345715   -5.19247302278306   -5.17163422155982
C         3.27547949585132    2.50849958460241    0.60554972200180
C         3.84034540704710    3.51889712421465    1.46117481811285
C         3.65318083287597    4.87711862487592    1.18741717127096
C         4.19063533741437    5.84933961480132    2.00199019666112
C         4.93702578329313    5.48686331258539    3.12530470812446
C         5.12827571386276    4.12608522496829    3.40495001379832
C         4.59072590336519    3.16262044137800    2.59180478428846
C         5.36005194534295    7.74200789872264    3.79339718328698
C         6.09755593122623    8.44668811292476    4.92642987714783
C         5.99829439886237    9.96478232704210    4.81050756745239
C         6.73717388224702   10.66593581590081    5.94785255359470
C         6.64212657427821   12.18610023233245    5.84326878070666
C         7.38213591704929   12.88448844064317    6.98137553287890
C         7.29074153455239   14.40515088575136    6.88074472747161
C         8.03010032880777   15.09378274712783    8.02124214561660
C         0.39335687380999   -1.28520370006282   -2.04932015481180
C        -0.23664036125368   -2.30844958931808   -2.84147444752423
C        -0.10376048257974   -3.65735001887558   -2.49830234930469
C        -0.70417498474882   -4.64613686918169   -3.24525301794818
C        -1.46026809530326   -4.31147464960072   -4.37094971006322
C        -1.59593325635345   -2.96021119454172   -4.72110205379237
C        -0.99744433268056   -1.97937846436299   -3.97317691937781
C        -1.99559632133568   -6.57835731457575   -4.89188847566614
C        -2.76684484593964   -7.33214463175736   -5.97019197906759
C        -2.10073082791889   -7.19467492093771   -7.33794653029942
C        -2.90260007559506   -7.84500724711381   -8.46460098970134
C        -2.95394855508397   -9.36865935625917   -8.37004067845100
C        -3.66536278871978   -9.98860565605484   -9.57045113987255
C        -3.72187309319312  -11.51181194054605   -9.48132341753022
C        -4.43273103855339  -12.12480333781152  -10.68148260943607
H         3.07566118714049    5.16085526359656    0.32032873308466
H         4.02575948824538    6.88712555016938    1.75955229865310
H         5.70719629376843    3.86303251917702    4.27584065748385
H         4.74010467257606    2.11679182019431    2.81316029128219
H         5.78706707041017    8.03313428833181    2.82419332962877
H         4.29646166743770    8.01596410063579    3.80582256088841
H         7.14404401154168    8.13837924531392    4.90546553623543
H         5.67304449744689    8.11658156224045    5.87590112604914
H         6.41923114029829   10.28459480089979    3.85440854117730
H         4.94714855508829   10.26228003742810    4.82470250664574
H         7.78791748372142   10.36827232233503    5.93226674565498
H         6.31720381131844   10.34320700446254    6.90304483690952
H         5.59118726725864   12.48447934726630    5.85940513390957
H         7.06158209555370   12.50967515370486    4.88769865791651
H         6.96189802841393   12.56128535307244    7.93672148616465
H         8.43285118272032   12.58535889915524    6.96561700385091
H         6.24030221778099   14.70477888597439    6.89592537524872
H         7.71268449887430   14.72922702780259    5.92661013959235
H         7.95060908313072   16.17472685279524    7.93270718691262
H         9.08419094296524   14.82498141926256    8.00967858035090
H         7.61264846581144   14.79632800970205    8.98080753518639
H         0.48033065103993   -3.92037158879601   -1.62914918332867
H        -0.58137308279475   -5.67506435948196   -2.94711485852667
H        -2.18271801521463   -2.71724945493881   -5.59268257167006
H        -1.10527415300564   -0.94116840926467   -4.24819560135186
H        -0.94325009837173   -6.89238407227243   -4.89417267818056
H        -2.42595227378229   -6.78728344816431   -3.90309216295984
H        -3.78043443230689   -6.93106496671352   -6.01682281503729
H        -2.82214307803340   -8.38050525527730   -5.67617618341586
H        -1.98351906282424   -6.13119527577581   -7.55376553621769
H        -1.10380520795138   -7.64068364955798   -7.30058756350845
H        -2.44584073719942   -7.57025100757061   -9.41830202745889
H        -3.91974145643835   -7.44711699423114   -8.46071188454549
H        -1.93541500353402   -9.76059898744024   -8.31412225123322
H        -3.47552973716674   -9.66652454893558   -7.45867294563485
H        -3.14551750966832   -9.70123081818181  -10.48751187088345
H        -4.68221730990336   -9.59337698923219   -9.63054844653386
H        -4.24266288045686  -11.80039702241102   -8.56524002296913
H        -2.70507906200138  -11.90698014158578   -9.42137790899755
H        -4.46100919008344  -13.20877589852888  -10.59818813584607
H        -3.91739685205482  -11.86472482488662  -11.60357519264414
H        -5.45507914708769  -11.75871606172062  -10.74700451692075

