96
CSD_code = SOTDAI | q = 0 | S = 0 | Stoichiometry = C49H38As2Cl2N2ORuS | MND = 6
Ru        1.36653193950087    1.37203029063696    9.92996518673464
As        1.80395093760948    3.72001837706132   10.00967956921572
As        1.17417374171316   -1.02205122246021    9.73377409459974
Cl        3.55119435929473    1.30785876474239   10.95313773479264
Cl       -1.65457310917372   -0.15615003649559    3.74157510080255
N        -0.86412383077723    1.21477192055268    6.10280582747641
N         2.14615243642573    1.33362792662179    7.98983377919224
O        -0.15632820617863    1.21167078271055   12.49324730108409
S        -0.67460112928283    1.70226878696977    8.76483666412531
C         0.49364402735448    1.31365864122868   11.54861710679581
C         3.45990035729896    1.29814228255984    7.74863985219870
H         4.10715614908402    1.35745120197285    8.61650766207567
C         3.99996062992114    1.20216025842465    6.48367133217023
H         5.07092236039174    1.17963297760623    6.36319051027659
C         3.14297689511943    1.13481212837210    5.39324598953900
H         3.52657332805691    1.04976938925773    4.38810722890218
C         1.78697564359852    1.18473160976868    5.62875748825713
H         1.05791471230344    1.14072857145114    4.83649182287053
C         1.30893677555104    1.29338212788047    6.93737604691681
C        -0.14041387806562    1.38254710011198    7.14770943352498
C        -2.22210971748274    1.22966567118466    5.98448583798595
C        -3.13472096396266    1.85774912955359    6.84099659113911
H        -2.76516103096692    2.39760346619747    7.69747279548281
C        -4.49065679585643    1.80936285244708    6.58875952531448
H        -5.17339059687015    2.30015583057310    7.26673044327085
C        -4.98071370967316    1.13823332296124    5.48073869925450
H        -6.04263894893462    1.09455220535439    5.29248449643229
C        -4.10046989106357    0.52926194063114    4.60049656547551
H        -4.46205210711542    0.01576215519231    3.72266197776404
C        -2.74522589383097    0.58890891932279    4.84703347708680
C         2.63055168784844    4.51832407002343   11.57809610132373
C         2.52551996338433    3.88962961423135   12.81183151837791
H         2.04423371044100    2.91807862417462   12.87440080210801
C         3.04830263467591    4.48577134979210   13.94671655774327
H         2.97022643955240    3.98742384150236   14.90189562806794
C         3.67294484745022    5.71777744604505   13.85533788972753
H         4.08553363701830    6.18154498012973   14.73922720067796
C         3.76932788459256    6.35809332356805   12.63005296689606
H         4.25370692488085    7.32150503322696   12.55961532320150
C         3.24604029832637    5.76410429515050   11.49577836712021
H         3.31666963021283    6.26192923382519   10.53225305147371
C         0.32112871142427    4.96985295158619    9.86374668190294
C        -0.88325934102890    4.60400844865404   10.45369465541704
H        -0.96765620016968    3.62444185961494   10.91939073716536
C        -1.96573102951770    5.46493163276366   10.42949672639260
H        -2.90140403042802    5.16945577985262   10.88129215159131
C        -1.84794671756804    6.70313660378592    9.82009335120479
H        -2.69327006668619    7.37497915446685    9.79320322068313
C        -0.64650180345407    7.08108007827962    9.24382755970397
H        -0.55390629492573    8.04878778580577    8.77173187840047
C         0.43678814664279    6.21988112624489    9.26765077748479
H         1.37676839418941    6.51355612991887    8.81043723768476
C         2.97007417917345    4.26404823808089    8.56171839708307
C         2.42470630467159    4.43679454363012    7.29089356396095
H         1.34458060080634    4.39607497915069    7.16576312822241
C         3.24711164416287    4.64973225132082    6.19965158380251
H         2.81632888242843    4.78355214742345    5.21762136436795
C         4.62261265510031    4.68178921637468    6.36692649319813
H         5.26456139717694    4.84703398578602    5.51407541744965
C         5.17422686264596    4.49378654022028    7.62365774330904
H         6.24719849666384    4.50797821532572    7.75044608950899
C         4.35309929668025    4.27622827848025    8.71704025315259
H         4.77546008376205    4.10126815526294    9.70247750668828
C         0.82267421752478   -1.97358399158719   11.39335191682358
C         1.56095140134993   -1.57347424840750   12.50351541787327
H         2.25345418406524   -0.74014187470170   12.40516484654212
C         1.41489099914356   -2.22785473086034   13.71299953129365
H         1.98733811830101   -1.91007241101221   14.57224199432340
C         0.53082776402917   -3.28921298097667   13.82062482621221
H         0.40966637955057   -3.79748344402403   14.76596322097512
C        -0.19711889948045   -3.70089611081724   12.71684918064416
H        -0.88316176781467   -4.53158763708793   12.80105983232562
C        -0.04947676352740   -3.05053555048722   11.50318008330804
H        -0.62051273089093   -3.37146420542093   10.63721068724880
C         2.62634514736591   -2.17862609203960    9.13322576597042
C         3.94692633243697   -1.75588171058123    9.21236401736488
H         4.16879149865509   -0.76811952678318    9.59904203069785
C         4.97448656332137   -2.60546019727476    8.83540375540025
H         5.99911485296200   -2.26849990528201    8.89743673403361
C         4.69019396955380   -3.88367627359036    8.38835763861019
H         5.49088485658279   -4.54452334386694    8.09010532476922
C         3.37625482882456   -4.32307883347308    8.33813025507543
H         3.15390023348030   -5.32790750766921    8.00885216728911
C         2.34879613780124   -3.47783599498680    8.71417544058985
H         1.31845922450350   -3.82097664659415    8.68748902853734
C        -0.29204028364773   -1.56063153605122    8.58259989391946
C        -0.09330552029705   -1.93119564271634    7.25741054414086
H         0.91903757048704   -2.02263665971789    6.87175229861724
C        -1.17721118587008   -2.17791649943658    6.43207378246407
H        -1.01453103738652   -2.47462074784068    5.40674154296391
C        -2.46529170826937   -2.02026694382675    6.91322479407113
H        -3.30974558897061   -2.19552048406687    6.26323433420866
C        -2.67326605204832   -1.61386074359452    8.22175246609391
H        -3.67835976567741   -1.46347337710110    8.58807652456570
C        -1.59219394649627   -1.38401060036633    9.05156752280315
H        -1.74009134352284   -1.04067083369705   10.07375053394247

