96
CSD_code = SOTDEM | q = 0 | S = 0 | Stoichiometry = C49H38As2BrClN2ORuS | MND = 6
Ru       -5.29532392124902    5.39739351971337   21.24987950918015
Cl       -4.73419045683485    3.88316386671620   19.46980462246968
N        -5.24111139906895    7.04536916720895   19.96799718051397
N        -5.27778932754941    9.66151282472646   22.37728964641119
O        -5.65902131583610    3.35709119705696   23.40120579340637
S        -5.63224700551612    7.06158810099660   22.92093887506244
As       -2.91945028631446    5.57641914479833   21.44408277221140
As       -7.60793821314714    5.18362215090885   20.65216247716548
Br       -4.37927647809616   11.48035641556035   28.06896329834151
C        -5.47524218652723    4.08373430993043   22.52718026466833
C        -5.16010545839167    6.92186245929286   18.64017468494250
H        -5.02776947029465    5.91512690327220   18.26014175347256
C        -5.22268883087719    7.99183198909316   17.77203274231301
H        -5.15371756121097    7.81781471349850   16.71066366456282
C        -5.37837589368438    9.26942997898593   18.29069437425575
H        -5.44407920661162   10.12940253989722   17.64224849177489
C        -5.43490255798093    9.41113645694338   19.66051877482401
H        -5.53193658287521   10.37086571954227   20.14154665069517
C        -5.35560816851994    8.28377677328271   20.47901291087852
C        -5.37657328882648    8.46357624311529   21.93497529911270
C        -5.11301722049077   10.00043091298295   23.69564479785600
C        -4.07347698707871    9.46407029085926   24.46310613447675
H        -3.43159565802860    8.70743818791101   24.03582799839311
C        -3.85218908024729    9.90305517750070   25.75033012969797
H        -3.04613212268414    9.48565819137843   26.33467138465164
C        -4.67710636798661   10.87836787358338   26.28363873749579
C        -5.70856376665270   11.43072355483273   25.54333596394009
H        -6.33976091318351   12.19313469726726   25.97465225850618
C        -5.91711869670896   10.99993937233586   24.24987645271976
H        -6.71688409962124   11.41850715568207   23.65814240795157
C        -2.20964646092900    6.73133479621614   20.06062140535495
C        -2.21273969994555    8.11376487915330   20.23537830686406
H        -2.47666646848232    8.53218215944125   21.20365699769335
C        -1.89126685102133    8.95195086563596   19.18255864522228
H        -1.89526067145179   10.02271030478772   19.32798570994911
C        -1.57607139829815    8.41812630576045   17.94358031909497
H        -1.32803509645413    9.07396620667838   17.12194399191112
C        -1.58724499037048    7.04536001897499   17.75620153685908
H        -1.35189283309409    6.62996755438176   16.78696454506400
C        -1.91075894615020    6.20462984635033   18.80673456210106
H        -1.94716966301935    5.12829142911469   18.66502680254391
C        -1.81655605968373    3.98391206845189   21.29427285980367
C        -0.46269339429515    4.09011810791979   20.98938576867827
H        -0.03859935028237    5.06869170425655   20.77910218151448
C         0.33077076904179    2.95804307722315   20.94561215275964
H         1.37973823743734    3.04370949084035   20.70077308282521
C        -0.21982479150784    1.71483710680343   21.21424420022944
H         0.40066015971823    0.83165774173130   21.17581113657730
C        -1.56289484286022    1.60429984594157   21.53111501842358
H        -1.99163891273881    0.63557243229430   21.74221902942762
C        -2.35814393577197    2.73663513118809   21.57428886836887
H        -3.41519414259356    2.65821907003745   21.81029917901771
C        -2.12694064539207    6.26837019600768   23.08103283584425
C        -2.74976166818612    5.93224706406565   24.27858337476618
H        -3.66547033026995    5.34558901198147   24.25245500309098
C        -2.22780788986359    6.36208461462884   25.48566529677234
H        -2.72511851837713    6.10721984166583   26.40989084291948
C        -1.07384316391429    7.12840349793384   25.50294494988462
H        -0.66800654718004    7.47375470184402   26.44253481274583
C        -0.43737062435766    7.45179428515161   24.31576931431857
H         0.46531133821350    8.04557494643371   24.33048447166407
C        -0.95748262067818    7.01959800503861   23.10760885036386
H        -0.46017313473553    7.27526657092999   22.17689378100225
C        -8.37107998885407    3.41591992021945   20.38919275487950
C        -7.63440139221317    2.26522313283668   20.63090935221272
H        -6.60765107075354    2.35175819797314   20.97066591594058
C        -8.19784323678815    1.01769181259754   20.41522361868221
H        -7.61822818201254    0.12574426671063   20.60261656569379
C        -9.49925131890131    0.91550008831663   19.95624718447184
H        -9.93833935645403   -0.05675553963657   19.78771274683119
C       -10.24066999701298    2.06065658726896   19.70606960395394
H       -11.25519209445550    1.98022796735283   19.34314994889055
C        -9.67902287613913    3.30545772938062   19.91905696042527
H       -10.24813714761587    4.21250292655752   19.72462341901429
C        -8.09478857701971    5.92939693810438   18.91573742418015
C        -7.66087792423187    5.21370198501937   17.80042905986079
H        -7.13266720206143    4.27544001795170   17.95002790584876
C        -7.89051213808926    5.69468159431896   16.52497325786835
H        -7.55142346971699    5.13162323036528   15.66755409566887
C        -8.55174224776185    6.89988788260687   16.34838320576202
H        -8.72825153090053    7.28041593976083   15.35301570432440
C        -8.99212403791521    7.61276955476619   17.44988077683401
H        -9.51629293467300    8.54812328095043   17.31474342173469
C        -8.76635480076479    7.13160233108277   18.72963601921994
H        -9.12809468698944    7.68968429501471   19.58553691482595
C        -8.87067086995139    5.99460247050369   21.88829284991731
C        -8.79913323682417    7.36638605160627   22.12224841843578
H        -8.09556054359076    7.97413154430295   21.55919054088672
C        -9.59560302887671    7.95972688704021   23.08404357235425
H        -9.52641042661581    9.02378268210299   23.25860119655218
C       -10.46571061158642    7.18612939631875   23.83413918918497
H       -11.08295780011803    7.64748249705730   24.59069450203446
C       -10.52934061480074    5.81895731232358   23.62518795309147
H       -11.19483170490929    5.21135889300324   24.22125636761274
C        -9.73085079262140    5.22384816126936   22.66328990209115
H        -9.76669850836246    4.14915718134130   22.51278973761496

