58
CSD_code = SOTFOY | q = 0 | S = 0 | Stoichiometry = C25H19O12PW | MND = 6
W        -2.64410052508842    9.40432416509646    2.87801777880492
P        -0.43413442560127    8.75699976117915    3.73738077092614
C        -3.14754523038669    7.47175732273222    2.75213928173920
C        -1.87376104713269    9.36396358068810    1.03739565784466
C        -2.12958308311875   11.33435973054471    2.99465946073535
C        -3.40487461683290    9.40967712155694    4.73025519063359
C        -4.41826218841665    9.92979753913103    2.15110396068414
C         0.20549188103668    9.26740931077806    5.35846445626413
C         1.29517636539879    8.63681344203248    5.95599024068367
H         1.78143672864402    7.80255060293442    5.47206168250364
C         1.75654831972225    9.09551466010850    7.17623408547720
H         2.60017686823527    8.60869233038595    7.64213423155893
C         1.14392661448896   10.17067104446592    7.80103107449848
H         1.50942548960183   10.51916856456618    8.75550947580323
C         0.06363101972078   10.79980458518265    7.20397462449773
H        -0.41310119980734   11.63861609184930    7.68875655023071
C        -0.40647347062285   10.35009693606792    5.98358216860963
H        -1.25062940481441   10.83519219980302    5.50845620124696
C         0.96549099489854    9.08173367448812    2.60492758314262
H         1.02510723000191   10.02300823178675    2.06321882440369
C         1.49197771416375    7.83823928800565    2.00715466131273
C         2.04001589958445    7.89446886791517    0.60245293520435
H         2.72260411646275    8.73762795006604    0.52457051973658
H         1.22587365414424    8.03315832740206   -0.10564629258662
H         2.57256563490527    6.98559711353296    0.34359225754394
C        -0.04308905143285    6.98886542181257    3.70408713778545
C         0.79447541869452    6.56723793760768    2.51877585655712
C        -0.13015335242428    5.97922049092145    1.44322543651615
H         0.45191096145604    5.62115641352583    0.59957852909556
H        -0.82962366328736    6.74220912514198    1.10442818381053
H        -0.69471905040484    5.14559273597231    1.85600230892199
C         1.77906607205170    5.50262200957485    3.00573251568674
C         2.78840552222351    4.92114855899547    2.03859037548800
C         4.81039545835271    3.77343807370925    1.89466637104291
H         4.39105702711296    2.83163358014730    1.53525678542769
H         5.66086341388839    3.59482543268810    2.54699392864545
H         5.09826710867671    4.38691891770732    1.03934967514300
C         1.30819934274226    4.55593403209191    4.05603789043434
C         1.82813695359055    3.12620444269950    4.08165245237421
C         2.61612517728168    1.43554555882364    5.47753298433775
H         1.79893989217311    0.74302322584786    5.26887343494123
H         2.93225236504790    1.35428145390461    6.51380932198466
H         3.44521788461382    1.22256218985437    4.80028818523951
C        -0.08854357607341    4.72557251595389    4.61934348678143
C        -0.50540462491366    6.12615983663475    4.61703390954596
H        -1.19232547746185    6.44184890956163    5.39148641563664
O        -3.42397624664469    6.36804758144838    2.68805631040286
O        -1.41072415739000    9.33387034977874   -0.00638583626611
O        -1.84249080679307   12.43785664985363    3.02758138610862
O        -3.85687525207568    9.38160796034900    5.77620299808675
O        -5.43364877367330   10.23468441895118    1.73007381538045
O         2.18934585208096    8.52657057624305    3.00516223365480
O         2.64539565985706    4.88636099323719    0.84448041307235
O         3.84080598724586    4.45168073723467    2.68633351877136
O         2.21131966674336    5.59034604182940    4.33025363006044
O         1.88079496283465    2.42207622099272    3.10866959365407
O         2.17047629138032    2.77712488296594    5.30482232846117
O        -0.72666032466321    3.79243028164800    5.04028704171544

