94
CSD_code = SOTHAM | q = 0 | S = 0 | Stoichiometry = C48H26AuBF15O2P | MND = 2
Au       16.11277038235557   12.25251914076395   16.44827951298407
P        16.38362927015088   12.40067642885612   18.69410929049128
C        15.84291385897743   12.08154757532519   14.45087737125038
C        16.24022616625798   12.87494598085061   13.42847150904601
C        15.78374770171644   12.28990321731144   12.18903484193151
O        15.99267572204269   12.77237660628614   11.05704086848650
O        15.12166816303691   11.17367511200657   12.40811755427218
C        17.01952117036360   14.14123957809558   13.44460109169746
H        16.50476647052532   14.89986751025008   12.85884182539436
H        17.99802813439203   13.98291999578126   12.99344712279961
H        17.14757533406090   14.49028743037007   14.46557233840560
C        15.09487467024934   10.94445893422065   13.82918926346037
H        14.04205973391590   10.96354786200328   14.13154472072382
C        15.68824023105066    9.55538968035766   14.10929732266446
H        15.14984888752802    8.83639549997088   13.48650972613873
H        16.73564251141595    9.55957977518621   13.80172912496782
C        15.57238545912190    9.16489343024121   15.55509936032809
C        14.32486479751733    8.97846597930145   16.14033390935750
H        13.43082651283090    9.11653507083871   15.54975141671730
C        14.21811646896175    8.59894348320487   17.46559856985746
H        13.24360365289955    8.45062071969829   17.90642294330243
C        15.35766815105609    8.39555967773462   18.22515313559567
H        15.27261540623231    8.08601452425506   19.25571119262750
C        16.60425553926461    8.57858694430622   17.65356221660931
H        17.49691803636535    8.41281409340664   18.23922134177818
C        16.70952002177177    8.96047314830180   16.32679602221419
H        17.68426295459519    9.08124321216241   15.87570150689891
C        15.16973105315797   11.44941503531535   19.64634493998313
C        15.48774711671692   10.63287702218602   20.72381049010960
H        16.51442402690655   10.53184462659684   21.04598103525629
C        14.48151528082493    9.94263023712269   21.37799741461586
H        14.72692775693490    9.30880165850961   22.21746672342902
C        13.16642554636383   10.05916317108963   20.95957843247857
H        12.38743829913922    9.51708593259900   21.47429341815987
C        12.84914437219241   10.86561976724667   19.87710547443983
H        11.82465182441144   10.95292889276087   19.54734188857033
C        13.84803471988524   11.55439337239796   19.21771490993585
H        13.61759612004716   12.18158495579706   18.36513143398334
C        16.22151517417955   14.08572573956639   19.35424237232717
C        17.01551263280320   15.05512802329027   18.74491439711122
H        17.66869391006127   14.76642570544266   17.93036566270424
C        16.96590250942392   16.36459672254813   19.18052343753333
H        17.58411097675327   17.11433927717704   18.71018328316217
C        16.11597489764180   16.71403910673882   20.21916153022885
H        16.07363251481248   17.73787764111245   20.55869808236528
C        15.31816372770426   15.75395343623306   20.81875554844104
H        14.65462636306927   16.02923191517715   21.62506252344740
C        15.36575937368836   14.43821374206840   20.39048315310578
H        14.74106443378659   13.68993587159513   20.85842553526941
C        18.00124880912197   11.90417094625115   19.34505794679866
C        18.41316224387676   12.26621240983047   20.62574566166677
H        17.76634349074187   12.86963984764782   21.24879493660476
C        19.64989129555100   11.85673885999474   21.08782822460010
H        19.97045399132942   12.13403838629926   22.08102847936128
C        20.47917745260074   11.09494386091195   20.27837747864255
H        21.44410469018804   10.77853868329798   20.64462713672937
C        20.07673412203987   10.74685680651306   18.99930533768407
H        20.72774700324943   10.16230377351281   18.36659984226256
C        18.84034914026710   11.15308135454433   18.53015394612292
H        18.51410365818893   10.89774793134053   17.53086325288510
B        15.59845057384735   12.16703755256313    9.69831206528178
C        15.57914977991002   10.54179857006521    9.82118359450045
C        14.55402292932350    9.71793247413758    9.37756793761255
C        14.57557462933739    8.33439233214670    9.53636109671838
C        15.65001742731012    7.72747035555546   10.17201218374846
C        16.69489669325187    8.51991485495716   10.63138889023968
C        16.64517120671496    9.89283809559160   10.43970798728071
F        13.47174058098432   10.24127072631599    8.78239947300540
F        13.55447869936982    7.58940624278477    9.09890774699575
F        15.67278462271664    6.40379346994347   10.35701528259202
F        17.73007763604686    7.96176167419609   11.27507210617577
F        17.67807880528060   10.61666811282679   10.90997243644871
C        14.16965614229909   12.81228515049008    9.23751865255774
C        13.17528444359729   13.19898609781611   10.12771578631686
C        11.96910358404768   13.76321373630162    9.72560763053515
C        11.71483313096720   13.95845087468913    8.37574810135102
C        12.68079155817814   13.57865465009984    7.45185948150039
C        13.87523221014796   13.02083126616244    7.89241422833881
F        13.34068618999682   13.03113580507116   11.45269201140523
F        11.05530958834779   14.11423954584041   10.64020507379867
F        10.56222246698909   14.49994352846994    7.97287795375518
F        12.45924598102093   13.75528231878974    6.14556503788755
F        14.76221817474874   12.66796746616940    6.95002008071481
C        16.78320753463170   12.71277114856110    8.71382599151254
C        17.07427683631147   14.07349823352695    8.71518851500484
C        18.07159333217746   14.63511217591281    7.92720057652420
C        18.81956853455625   13.82130765737791    7.08511794986154
C        18.54613065660694   12.46033889723287    7.04494007866639
C        17.54141938270711   11.93250519347583    7.85063829397694
F        16.36290570780574   14.90359300783433    9.49416715182826
F        18.31391960309383   15.95143774133680    7.97473076367754
F        19.78589793551982   14.34221602507842    6.32338342936792
F        19.25203498074201   11.66266608869805    6.23626063021170
F        17.31798450498166   10.61261360693332    7.75434275064044

