113
CSD_code = SOTHOA | q = 0 | S = 0 | Stoichiometry = C53H41AuBF15N2 | MND = 3
C         4.56853810908358   12.67744482401637   18.45285108028650
H         4.29248322436147   13.42625979569397   17.71481778698674
H         5.18301060157439   13.15108182282804   19.21397648715698
H         3.66057544435383   12.30944485786952   18.92756746510370
C         1.21032951762674   12.19828636226875   16.11214410410178
H         1.25597536834533   11.90751644060641   17.16025274231346
H         0.19791965847229   12.52529393594522   15.89269936227907
H         1.88711049533947   13.03467541703556   15.95467375033795
Au        1.87145352675007    9.88115871780293   19.45538912941919
C        -1.76848183207529    9.77318119455820   19.92483387965408
F        -3.37230315941729   11.62904350262141   20.98747484270976
F        -4.11469861827642   13.54270905645683   22.68286849372051
F        -0.53149700037991   12.43059369364629   25.55154150425918
F         0.21273915741650   10.48850958005811   23.86567402995826
C         6.96193428259603    9.85377743224443   20.75917037070050
H         7.70552525753151   10.09129165465055   21.50499590925864
F        -4.10840338348228    9.87328093546374   16.46128959538744
F        -0.66516842325002   11.69653743800287   19.07952610013096
C        -0.89419632063971    8.38838519593465   22.07396749903528
C        -0.63329487809285    9.90124542781977   14.91986576192017
H        -0.95149792812423   10.73997466482680   14.32304048503162
C         4.51761674092512    8.31178343970840   16.62530805584928
H         5.52889790907928    8.04698834212179   16.39755405445865
C         5.69378891539968   10.49144945827909   18.81259067688859
C        -2.75344803930050    8.82756784255903   19.66265928144036
F        -0.75525495102828    4.64382753980762   23.93857481259504
C        -2.33489380209178   13.02491690131680   24.14393940464625
N         4.16584552679658    8.89295156418734   17.81282391538711
F        -2.58406162424865    8.95424349921019   23.64248271767792
C         0.13005605654321    7.73368175863083   16.51064398711094
F        -2.99544014857398    7.83468926324987   20.53615249690410
C        -0.80341568566963    5.83867901607718   23.34132690977478
F        -2.15235804693623   11.74725209617512   16.86577509879364
F         0.73977991603408    7.54883007398678   20.57104951014239
C        -1.22876530742631   12.23165167543245   24.42488160505320
C         5.37887584467375    8.29141747409278   19.83127997558917
C         5.08926572738066    9.23239828866801   18.84139862230763
C        -2.62886752685974   11.79533856330497   22.09640318199955
F        -2.70998901270067   13.99120722981001   24.98881760460408
B        -0.92861377489798    9.84374299982676   21.32432543507332
F        -2.45868486872518    6.58657048451375   24.84478520899685
C        -1.59898612380170   10.73537287097107   18.93326587643199
C         1.01647305642864    8.77493107890007   16.22414595688058
N         2.36425034773976    8.68798804897314   16.67842123255013
C        -1.70028805646289    8.06668785230344   23.16305645671387
C        -1.52086834498352   10.99323557317004   22.33248579443526
C        -1.66379325512640    6.82908057684461   23.79758885008106
C        -1.13695927715464    7.79229865019570   15.94603159978676
H        -1.83932585189483    6.99446677778760   16.12339881922502
C        -0.84951301017832   11.24252141514598   23.52829501422097
C        -0.06155977120454    7.36387413727795   21.64474356712714
F         0.83220266306024    5.17654929584605   21.76025118415968
C         2.84327622762387    9.12887182263067   17.85065781711801
C         6.55574050290370   12.04233883756442   17.03389854241718
H         6.25067949158591   12.70808796602951   16.23007102090937
H         7.11582854936089   11.21497123898387   16.60262131844899
H         7.21482879419357   12.59441189940368   17.69785086258057
C         5.32245151877813   11.52779164064701   17.77892290158831
H         4.65187526674243   11.07862827693754   17.03979870366186
C         0.00043803688527    6.11352703899844   22.24522138766349
C         6.63523257262211   10.78367724521468   19.79042503995025
H         7.11682836431713   11.74841247528460   19.79436439360310
C         4.67617908341121    6.95667600504863   19.88941880653398
H         3.92959756063762    6.90626968087558   19.09082392479907
C         0.65100285403205    9.87649521466487   15.44731964076327
C         3.37709534455475    8.18416127475763   15.90676968863312
H         3.20383582423810    7.79850514202945   14.92364945985086
C         6.33194597561911    8.62446917329823   20.78561252203546
H         6.58200184810540    7.91509213265885   21.55832776170472
F        -4.45786869300089    7.89062983933578   18.31207160337570
C        -3.35077288981602    9.83455691000248   17.56298478447758
C         3.93677322192385    6.80639819306883   21.22078707915490
H         3.26622075159006    7.64919151637449   21.37700478289222
H         4.63258814543907    6.75906883545461   22.05407555284817
H         3.34748534955302    5.89363185277753   21.21431025756454
C        -3.04174347377096   12.79624108555977   22.97216850477084
C        -3.53413135381696    8.83903211844290   18.51095517155875
C         5.66953743322407    5.81138399794804   19.68142441881666
H         6.18045243713030    5.91385017178085   18.72588830795591
H         5.14382250469117    4.86005197423303   19.69185061924539
H         6.41737114233365    5.79764926162433   20.46975517360464
C         0.55648337780149    6.56257945552298   17.36497589486456
H         1.34357212827273    6.90043916023740   18.04753089166576
C         0.54633062824468   10.36092472345794   21.08112064678709
C         1.60288631902046   11.02534740814919   15.20937854297211
H         2.61828538823124   10.71538554054711   15.47888803114907
C         1.63095556409808   11.45564460058380   13.74181579925087
H         1.80364599471200   10.59960620201531   13.09260664508632
H         2.43211490169418   12.17442167143814   13.58526605272173
H         0.69690370492384   11.92747502344057   13.45192390548957
C         1.58308987018742   10.99448199569543   21.31040360909338
C        -1.50901059876100    8.85725995199914   15.14641393625621
H        -2.49237505667094    8.87785972732579   14.70251743960320
C         2.56156886860741   11.86757704408408   21.86455492904581
C         3.91009867111887   11.52191753857026   21.91436265896406
H         4.23594726646588   10.57680067683994   21.50385064022387
C        -2.36296620999058   10.78556836221443   17.77585413886968
C         4.82058786828734   12.38346466852139   22.49510930121467
H         5.86379173902781   12.10727590786690   22.53532732399819
C         1.12034901571282    5.44970247619925   16.47401122268109
H         1.99591360411320    5.78905004294588   15.92417863478360
H         0.36884209351100    5.12498367417813   15.75739441563618
H         1.40770022673659    4.59707934267900   17.08438394649208
C        -0.58513437503384    6.01609022036881   18.22136884714271
H        -0.18537227129014    5.32038443561038   18.95469265562833
H        -1.31550396347181    5.48188102069560   17.61974864984032
H        -1.08651469941013    6.82303619961115   18.74910195706059
C         2.13909085532932   13.08682121350104   22.39681090426641
H         1.09225398326714   13.34908428645707   22.34899409235031
C         4.39877005956494   13.59173663917619   23.02556365603574
H         5.11308715603620   14.26189352696882   23.47987907018122
C         3.05780790523431   13.93967472413921   22.97601215448195
H         2.72730826879625   14.87969397860753   23.39165207097562

