71
CSD_code = SOTKER | q = 0 | S = 0 | Stoichiometry = C27H34CrN2O5P2 | MND = 6
Cr        8.19339371062821    5.42362914346818   11.22352489127129
P         8.45434773263946    3.11597859149986   11.40547399040717
P         5.76041433222201    1.90285264096187    7.84595366702856
N         7.09944009526997    2.47056145226739   10.51811438662637
N         5.30921929420272    3.03347181381523    9.08860852048758
O         6.47844066927482    4.62867057565234   10.19262545867197
O        10.60681037977001    6.42507046174963   12.66833103355399
O         7.58354834585994    8.33656309820106   10.95161907741496
O         9.76662454312423    5.96915067572763    8.72876810288939
O         6.97424574485412    5.64726587926328   13.95501838739643
C         6.32058570607190    3.43425902097737    9.93746553707548
C         6.68998441058712    1.08157526492249   10.60166384569949
C         4.27600068076635    4.04670349681405    8.88999883929946
C         8.09791297598028    2.45570058441919   13.07133668894788
C         9.10512643277823    2.27904419773804   14.01640441350715
C         8.79354591907497    1.97115355978885   15.32856825814182
C         7.47197019649365    1.85599992348316   15.72373649381816
C         6.45982355038835    2.07292739251291   14.80261718196716
C         6.76916775000009    2.38238922348546   13.49271509759942
C         4.10342752392531    1.18255671618267    7.54011920075102
C         3.83465100338257    0.51473701333613    6.34768210893955
C         2.62890182925261   -0.13429988937200    6.15557089760999
C         1.67926762513907   -0.15258140325193    7.16277642086458
C         1.95509199323384    0.46421325053223    8.37144768505466
C         3.15930005561802    1.11515092465637    8.56356697300775
C         6.13006796790772    3.01559921738489    6.32723761671452
C         7.09892114308336    4.09580048398184    6.81618453687096
C         4.92747545167974    3.64576665559658    5.63011574321492
C         6.89533241279513    2.12267025836679    5.34255710716499
C         9.88967255022228    2.09118477557645   10.70636491656664
C         9.76036795982862    2.16598559986607    9.18435943298349
C        11.16216109470355    2.84428796395634   11.10565936259237
C         9.96736657682693    0.63721461723825   11.17000588697013
C         9.69337504319753    5.98968311364078   12.10091408223376
C         7.75590743395278    7.19714478896430   11.02491427027055
C         9.12171472288017    5.64295172359868    9.63193467761906
C         7.36127916917574    5.47281431539850   12.88206993509665
H         5.60152737729722    1.00572539092002   10.56635362710866
H         7.09614510559885    0.47966204289719    9.78496141166595
H         7.04068443955989    0.67392080259939   11.55059541342070
H         3.78813256656738    4.23678468095474    9.84800384286256
H         4.68983484744932    4.99271135965736    8.53711548549957
H         3.54323876982497    3.67005027227535    8.18145432541471
H        10.13946665123945    2.40155477873783   13.73485357235472
H         9.58714965106134    1.83429644644122   16.04822527575283
H         7.23047035302327    1.62069180939012   16.74918841854867
H         5.42627966842956    2.01524761709111   15.11111986244380
H         5.97092519702925    2.59069775418041   12.79163814524263
H         4.57359863915216    0.49420284127773    5.56166400178842
H         2.43320081587743   -0.63259000175020    5.21736349296276
H         0.73638336738919   -0.65606589990321    7.01171810256090
H         1.22969919386308    0.43494781156196    9.17137936330746
H         3.36447694120950    1.57897329734719    9.51708231242383
H         7.44497446429954    4.68958627568629    5.97142918196743
H         6.64425716423665    4.77606849522478    7.53279368829664
H         7.97098230196347    3.64210895107841    7.28600034365540
H         5.24714220199946    4.05496260292979    4.67202860567642
H         4.14417023269962    2.91482996844217    5.43806420983204
H         4.50756054875168    4.46057572476296    6.21245542963043
H         7.33446477935868    2.73388975399551    4.55550395160005
H         7.70083605256472    1.59338263465395    5.85036319488326
H         6.24867083068228    1.38836540955776    4.86962456398177
H        10.63471004297274    1.71954349165371    8.71268423620769
H         8.87632158600967    1.64065989002029    8.82474705225389
H         9.70114666088928    3.20815300722710    8.86997448912886
H        12.02061094717563    2.43533022094273   10.57388287881806
H        11.07205968541662    3.90194542723456   10.85485443131489
H        11.36416937366698    2.76733973996554   12.17065541155737
H        10.93715781673431    0.22520675714308   10.89245686087975
H         9.86411929181365    0.55349691606127   12.24943795499293
H         9.20204840720985    0.02519660717193   10.70120213552809

