71
CSD_code = SOTKIV | q = 0 | S = 0 | Stoichiometry = C27H34MoN2O5P2 | MND = 6
Mo        8.25107635973323    5.48617860826302   11.24531933905367
P         8.47411354144901    3.14063566495381   11.42014381193686
P         5.78353891872853    1.90241461479057    7.88845774851147
N         7.11144676397288    2.52074747321945   10.55199226102885
N         5.31748485315404    3.03711537539776    9.11805730728783
O         6.43929901727169    4.66884523469099   10.19343843919938
O        10.81441848426923    6.37740640882459   12.70679155062405
O         7.37189438314206    8.42472863838163   10.89121472449954
O         9.65086491083112    5.82766513878393    8.50330996010085
O         6.77361585705478    5.53698991569052   13.96733692716709
C         6.32473088417619    3.47086874003830    9.96208205633288
C         6.70495378769659    1.13061312526516   10.64969179134105
C         4.26320911545016    4.02723599056073    8.91140613780935
C         8.13009777773077    2.50883816686098   13.09504152887557
C         9.14528851221260    2.34816969940517   14.03357656098244
C         8.84459530082653    2.04881937590984   15.35027142277162
C         7.52635855126403    1.92500724913460   15.75427970356076
C         6.50654064496918    2.12514188933945   14.83843653335384
C         6.80479171846259    2.42567374720900   13.52335701033009
C         4.14330223985203    1.13823155373929    7.60428446024931
C         3.88702106930161    0.44276088258669    6.42500434914683
C         2.69808033104325   -0.24118863298498    6.25056267718773
C         1.75402131524736   -0.26676919982402    7.26289801964111
C         2.01835242715189    0.37935896951826    8.45871194837740
C         3.20559493092006    1.06548578728618    8.63320338185308
C         6.11947978131622    2.99973426245014    6.35197707499013
C         7.07779114072821    4.09759549983046    6.82134202134277
C         4.90090419399555    3.60359399801028    5.65941585426737
C         6.88862291441657    2.10796835753267    5.36908157726861
C         9.89191254706083    2.10818476514412   10.71988486432440
C         9.74661389155402    2.14685374780671    9.19789198696436
C        11.17311868351431    2.86077087141799   11.08971757854299
C         9.97074818519515    0.66323385031998   11.21265885778256
C         9.86256511221574    6.05297381829703   12.15267824528977
C         7.71417774544782    7.34262804227344   11.02389410838502
C         9.13991381974679    5.63706381674544    9.51035697565672
C         7.30645675215620    5.47752650665450   12.95820967710432
H         5.61604943991681    1.05277523200265   10.63424148419170
H         7.09701878037702    0.52311716141199    9.83008473814717
H         7.07310160285260    0.72927419378239   11.59492442030944
H         3.78010078599615    4.22382679782510    9.87089957644882
H         4.65488954919518    4.97550308249563    8.53858474690589
H         3.53190208107657    3.62500110844101    8.21551539978373
H        10.17656803209611    2.47879659229385   13.74290874434339
H         9.64385501548921    1.92474002365014   16.06604681655128
H         7.29329230554490    1.69543398973941   16.78307683237725
H         5.47533141149242    2.06109752108520   15.15364145070928
H         5.99887337767535    2.62026935203273   12.82546526431024
H         4.62312881253264    0.42808772216700    5.63624381949188
H         2.51145147722282   -0.76137920247482    5.32242587190188
H         0.82455003385716   -0.79849289470970    7.12593723337953
H         1.29759050775006    0.34550810227339    9.26268704669846
H         3.40191198306839    1.55243970967316    9.57709121512684
H         7.40413552414947    4.69298356711025    5.96982353042568
H         6.62208477543173    4.77506130597339    7.54131524479213
H         7.96271557479030    3.65754769649156    7.28098379354404
H         5.20383859956336    4.00008541185754    4.69054576705905
H         4.12492190815663    2.85916457423656    5.48983523701106
H         4.47753283738082    4.42304622735256    6.23279036467318
H         7.33045649497287    2.72062696204584    4.58457407623415
H         7.69258470137289    1.57769752857027    5.87864239272555
H         6.24309532353038    1.37520023249278    4.89224365153407
H        10.61489627023575    1.68538796427880    8.72932681510632
H         8.85727258178755    1.61693501522802    8.85825775425317
H         9.68947559500145    3.18039394118678    8.85651749593056
H        12.02364965433788    2.43312719458538   10.55975846784991
H        11.08799020841970    3.91357953932174   10.81440246636072
H        11.38317778997447    2.80715707188839   12.15493866361783
H        10.93492937614389    0.24258024160368   10.92851644130625
H         9.88444201768525    0.60222928581960   12.29526459347492
H         9.19698910762396    0.04339579470166   10.76831011009017

