51
CSD_code = SOTLIX | q = 0 | S = 0 | Stoichiometry = C19H28Cl2SiTi | MND = 12
C         0.60734082524819    4.19383630899375   17.26678486520693
C         0.80470432434015    4.74137089881702   15.97620196371175
H         0.02462027459860    5.11356606160309   15.32223941783880
C         2.19437813598335    4.90209375750821   15.74647140003851
C         2.86326649171099    4.40155226573091   16.88109920352611
H         3.93003507100399    4.42882548072257   17.05632372884992
C         1.90106096135247    3.92145839865701   17.78895016464067
H         2.11658448922191    3.58888373959227   18.79582224586467
C        -0.31831668150281    1.74798137734816   17.02202486527577
C        -0.45605323875528    1.42937983587346   15.64163855850267
C         0.53962281325297    0.47376359846023   15.29584849623133
C         1.30862699985349    0.20722874007721   16.45359859637271
C         0.82564650743969    1.03106390442344   17.50065084390032
C        -1.21892965543621    3.24965799045950   19.73210578652011
H        -0.31450639984091    3.48788129469368   20.28207672071070
H        -1.55888011108466    2.26942802010574   20.04961907468354
H        -1.97473873647500    3.96778451708801   20.03070547240565
C        -2.52278495644470    4.15218531670294   17.09823090459029
H        -2.72062121413928    5.08204803293118   17.62236480523239
H        -3.39733850638343    3.52140982651299   17.21940855107066
H        -2.41582461675085    4.38598447280724   16.04498441797276
C        -1.57573725591464    1.85540738694233   14.73899790274088
H        -2.44231332825050    2.14996342476967   15.32487624232285
H        -1.86463355259827    1.02804154171363   14.09116967047815
H        -1.27651978666527    2.68898358097063   14.09828879010359
C         0.68238869902841   -0.24034210900956   13.98749186026812
H         1.73615912548282   -0.33331747830882   13.71835731908575
H         0.17551259797969    0.30011355761842   13.19065166754286
H         0.25792481648986   -1.24507588432395   14.06070847902394
C         2.32588513475336   -0.88075121369962   16.59630695728285
H         1.82963790865873   -1.80090951256058   16.91560853569248
H         3.07971539676041   -0.62149015733858   17.33760454563759
H         2.82735697459489   -1.07326853761843   15.64966189542426
C         1.29708845685233    0.89460274838818   18.91820842411001
H         1.05383023815621   -0.10393411666009   19.28922715158159
H         0.82298088906441    1.62109229657632   19.57021867175755
H         2.38151235660891    1.01227897884777   18.97878507146914
C         2.80976347898284    5.62888238311756   14.58255265774610
C         2.96822726754227    7.10940410985100   14.95316197320557
H         2.00546945502680    7.54341409655297   15.21434109906668
H         3.38476930377627    7.66397267087424   14.11548799273596
H         3.63566743548252    7.21431681676211   15.80610527314719
C         4.15599377104469    5.02824104599297   14.17805111563979
H         4.89513119783727    5.16728134329965   14.96423445251178
H         4.52366792726042    5.50942790407641   13.27448349685304
H         4.05073096919654    3.96110474988340   13.98278951388681
Si       -0.97053272570054    3.33115847455485   17.84015107618517
Cl        3.66153939139139    1.78531431267225   15.78489750755631
Cl        1.44516146505606    2.81473298416248   13.70995740985142
Ti        1.57517880389457    2.55136066229093   15.92582414830597
H         2.12505081101506    5.55631010049344   13.72834901564037

