89
CSD_code = SOTLAP | q = 0 | S = 0 | Stoichiometry = C44H36As2N4RuS2 | MND = 6
Ru        3.50344328698501    1.72536552808665    3.23229037531917
As        3.77867083895808   -0.62604829622322    3.00292673743277
As        3.43862078040022    4.07452729692915    3.60102340872896
S         5.70062190790988    2.21577831755915    2.22096076833955
S         3.41701915667379    1.21082371924660    5.64548623488301
N         3.37342354122583    1.96526225086861    1.22072793631729
N         5.07146080571260    2.52133676223403   -0.35375725565189
N         1.59604748940728    1.51089151294176    3.89270116340511
N         0.79538917720834    0.94137303768395    6.06211276930274
C         4.65884982924841    2.26431810265534    0.87351950095894
C         4.17504308762760    2.43880080617936   -1.32045447377514
H         4.53697824976367    2.66148011021303   -2.31455165285332
C         2.85587354037545    2.07189925146450   -1.08353222623010
H         2.13992540583949    1.97131654973203   -1.88145716548725
C         2.49295891031437    1.84579592557707    0.23433463969739
H         1.48096333758118    1.56356048451974    0.50575867393002
C         1.77022159755195    1.19297861447923    5.20838940095708
C        -0.44201946708328    1.04899374636157    5.61249146675075
H        -1.22110101884762    0.82982488465442    6.32928852968322
C        -0.72989293797948    1.43638908606434    4.30942912700016
H        -1.74144595234840    1.55740508801595    3.96080450806616
C         0.34722948243407    1.65564626009632    3.46597729403590
H         0.20898534836150    1.95259405772445    2.43148098246755
C         2.27792951408805   -1.57832498206755    3.78438306457679
C         2.35470626312196   -2.15346952953501    5.04807871011783
H         3.31504176706940   -2.20114461782310    5.55192650636914
C         1.21434107886277   -2.63804909180295    5.66540029917078
H         1.28159553721385   -3.07521770435302    6.65069853579606
C        -0.01315947774755   -2.54528600990001    5.03179122471845
H        -0.90321792904629   -2.91563968075257    5.51878579123941
C        -0.10403045459316   -1.96138217319411    3.77853728983224
H        -1.06426640664352   -1.87446360884584    3.28893831179189
C         1.03392035403233   -1.47198156744931    3.16442451025223
H         0.96890136291951   -0.98364733412715    2.19340169398136
C         3.95512810172056   -1.42809423546590    1.23137206907536
C         3.10235480851744   -2.38617902946204    0.69572575499549
H         2.28542237998761   -2.77575407814444    1.29423019580761
C         3.29989959189119   -2.85422945304553   -0.59332851720419
H         2.63259885253432   -3.60065439665626   -1.00098353193967
C         4.34687677011379   -2.37020062735466   -1.35864654473568
H         4.49096645493389   -2.73045329744809   -2.36675575705034
C         5.21586515235997   -1.43170855608862   -0.82578916847181
H         6.04135946691909   -1.05795527019975   -1.41378371038196
C         5.02285111441000   -0.96867570883382    0.46220860788657
H         5.70994122025460   -0.24223525821336    0.88960090491704
C         5.30675036611312   -1.47090396502345    3.84552594804302
C         6.25420255167154   -0.69604304786534    4.49940641120027
H         6.11985020985723    0.38153101699429    4.54138382146271
C         7.35640748859121   -1.29528628677193    5.08557300030296
H         8.09198874808785   -0.69038492645353    5.59527185373367
C         7.51421452642163   -2.66875214204217    5.01628326592280
H         8.37324795124739   -3.13762594289075    5.47395408460056
C         6.57362028776235   -3.44736033410376    4.35868531936242
H         6.70154541490812   -4.51911371548464    4.30396136795430
C         5.47299768205358   -2.85111328404071    3.77187815062987
H         4.72778927098122   -3.44751257269699    3.25008973553332
C         4.82723001137283    4.88338863106530    4.68575486378055
C         5.78335460658960    4.08361875662747    5.29562332281057
H         5.74721895538829    3.00774152472593    5.14669901069868
C         6.76628026406399    4.65616860187004    6.08525523879829
H         7.51021566858503    4.03177242199819    6.55805077903113
C         6.79286929522268    6.02795310333627    6.26842276256828
H         7.55940555202169    6.47593804490838    6.88389017909788
C         5.83580830130673    6.83141715722108    5.66685456280032
H         5.85748488179856    7.90169503797307    5.81502804164822
C         4.85290188912024    6.26182509212697    4.87897642145182
H         4.09365713526474    6.87803475828753    4.40235951981144
C         1.89187938800959    4.89487440982809    4.46575031754250
C         1.08174077672987    5.87325353712126    3.90120764230842
H         1.31890405670009    6.26887686003293    2.91905869778395
C        -0.01879543519632    6.35289785526218    4.59290828142090
H        -0.64277042572968    7.11420909489241    4.14629789522338
C        -0.32132444952128    5.86043573201657    5.85079421745792
H        -1.18625465566531    6.22975795352734    6.38200783143539
C         0.49260352488409    4.90096146939225    6.43130119111821
H         0.26872633243302    4.52088438254134    7.41736237472964
C         1.59395607054635    4.42617781600391    5.74419102035497
H         2.24395257800482    3.68396739333098    6.20128096483152
C         3.58657847694377    5.04166950716604    1.92387577985277
C         2.52770212023330    4.96135445809513    1.02081790498870
H         1.60017948770778    4.48651970750399    1.33689907668699
C         2.65586057062603    5.46021784589248   -0.26224558189398
H         1.82821659358314    5.39358880084868   -0.95496797984440
C         3.85435741335108    6.02778271951016   -0.66388638271722
H         3.96078889648696    6.40463985664162   -1.67043368670550
C         4.91911741546991    6.09463120623024    0.21845513532572
H         5.85951936488862    6.51862610341607   -0.10146645686131
C         4.78909391360095    5.60037145711765    1.50500001142410
H         5.62923500724134    5.62774701759481    2.19179710030801

