42
CSD_code = SOTLAQ | q = 0 | S = 0 | Stoichiometry = C17H20IrNO3 | MND = 7
Ir        3.33787818781381    7.54483708927857   10.16554452115435
C         4.36437798315251    9.37229710473332    9.45913526416107
C         2.94640813414559    9.64081500403930    9.60773732810302
C         2.23969474622079    8.81362495409004    8.68916391312682
C         3.18991375731522    7.99898615939038    8.00980937041633
C         4.51348608099885    8.36491585449263    8.47905609659649
C         5.82364460317122    7.89167517004783    7.94179358108624
H         6.32108024240793    8.70505256291994    7.41243218569634
H         5.69466261742001    7.05911822653370    7.25668941479733
H         6.46884158849981    7.57638180339804    8.75979543961497
C         2.90519091047014    7.06764202370987    6.87845977013879
H         1.91426284375919    6.63049288978363    6.97102187008340
H         3.63386908483577    6.26128226296660    6.84270311472409
H         2.95295438436748    7.61354574330128    5.93431533652995
C         0.76895644311316    8.88107675887785    8.42788031814372
H         0.21287556321078    8.88938493794375    9.36278954334939
H         0.43777214849049    8.02686062110646    7.84486240850094
H         0.52774114448353    9.79113345660098    7.87683428775103
C         2.34734775168295   10.73189655758233   10.43093510245059
H         2.34834264517730   11.66252691854471    9.86020651901483
H         2.91443395803982   10.89308908264238   11.34476543786008
H         1.31989057823748   10.49641494277567   10.69621369237041
C         5.49330608404046   10.10634508785221   10.10329872400832
H         6.20647670827275    9.39820255128570   10.52105225887246
H         5.14047074213788   10.75827061307830   10.89692707212104
H         6.01309939718094   10.71155882596752    9.35983271784009
N         4.49518506127747    6.57270681917087   11.32112575643156
C         4.36180153474036    5.62215125064718   12.29899167435257
C         3.02110944566411    5.14884026942192   12.61832045109749
C         1.85463072724393    5.63167463283120   11.97441684130414
C         0.61346210835769    5.09178355285781   12.38193852613517
H        -0.27282459262536    5.46282466293364   11.88972263474320
C         0.53405796328962    4.13528096128568   13.36137454612114
H        -0.43091606277814    3.74320021830112   13.64936465872834
C         1.68820561019283    3.66595272111684   13.98777507549184
H         1.62030118048419    2.91268034682012   14.75756058993756
C         2.90890358116871    4.17264756485261   13.61449371630286
H         3.82242630033357    3.83233661850428   14.07913909676223
O         5.84560621036356    6.90385119583187   11.15804759597402
H         6.27081587167653    6.30574543650894   11.84242389839246
O         5.38819842438383    5.21420163879777   12.86295889010015
O         1.84125830758231    6.53599490717484   11.03699075961354

