53
CSD_code = SOTMAR | q = 0 | S = 0 | Stoichiometry = C19H23IN4O5W | MND = 7
W        -0.92849163862775    2.94312280501589   12.77715810822952
I        -2.84942921418991    1.40482186265329   14.05861464576998
O        -1.61614434810956    5.48878846913026   14.48823381555666
O         1.45138678086821    4.82109427497718   13.55230779958609
O         1.44229299266579    1.67482849928577   14.40053522051927
O         0.87182322785529    5.47723573934116   10.04272944923441
O         2.00919736136577    3.61396325423153   10.65250904691278
N        -0.65157142661129    1.31572441183850   11.32507100319343
N        -0.19999393458378    2.09358209164048   10.33122084282245
N        -2.45038678796411    3.64826024135065   11.33637925445426
N        -1.59394329737052    3.98372783056890   10.35304462447828
C        -1.39451124855666    4.51546989007317   13.90900354201646
C         0.56310647971168    4.12947378054847   13.26194444887109
C         0.52000692929251    2.11498373413900   13.86342672189745
C        -0.28522237472139    3.48601141857173   10.67972471863978
C         0.89219219677352    4.31749715618746   10.38652864112837
C        -0.99808614300511   -1.08901526596044   11.75832603199527
H        -0.57252305814727   -0.99105753189707   12.75611308402573
H        -0.67097429848649   -2.02472050485881   11.31432434525037
H        -2.08240811985036   -1.10835354852960   11.86925498256889
C        -0.58477786217546    0.05573188833684   10.90972479185240
C        -0.07830505061376    0.04682914270457    9.60140959245727
H         0.09601690993185   -0.81421791667720    8.98937308438878
C         0.15159248949518    1.36602591091999    9.25230352416400
C         0.64739158765167    1.95545885432453    7.98448930201308
H        -0.13582704102668    1.92571794987900    7.22528510179877
H         1.49356214203027    1.38332257161986    7.61007163649885
H         0.95374792926626    2.98852096373251    8.13189561012384
C        -4.85648404620086    3.88164373218491   11.83185060043749
H        -5.11465065187377    2.82482053926832   11.89824907710551
H        -5.70025665529834    4.42854271610813   11.42163857038813
H        -4.65700761454807    4.23024241066415   12.84442305867318
C        -3.65732721191809    4.07181866749460   10.97861358188472
C        -3.55501776150784    4.69046307061958    9.72452523740403
H        -4.35169035413289    5.13962838468298    9.16785310440283
C        -2.22702790272685    4.61479560982013    9.34281630270799
C        -1.55370945508690    5.11252486285599    8.12056905973381
H        -0.67732356210637    5.69899446745748    8.39191421240958
H        -2.24060870164686    5.73437144554136    7.55387626453423
H        -1.23263924584502    4.28404710703655    7.48887668459317
C         3.25315396116731    4.31256207098474   10.56267663865217
H         3.87463009403726    3.89593996186129   11.35763978816315
H         3.07020811133463    5.37470729915036   10.75077505227586
C         3.90052218597855    4.11034762527035    9.19657918430418
H         4.78602162942076    4.74464890438167    9.13862897825097
H         3.20252841162585    4.44195156183461    8.42372561221739
C         4.28612078859468    2.65111442131542    8.96097714669600
H         5.06576672742502    2.36961788247696    9.67146713775319
H         3.41973375287485    2.01621931769065    9.15729959225378
C         4.78535621918441    2.42093452248931    7.54029182377558
H         4.01789507908976    2.68271073257868    6.81426948242855
H         5.05566811293905    1.37790150813212    7.39440127525713
H         5.66221690635635    3.03282320495846    7.34215956324113

