61
CSD_code = SOTMET | q = 0 | S = 0 | Stoichiometry = C25H29O5PW | MND = 6
W         2.76758873729719    2.68870979585561    4.39733286687938
P         1.01835034114130    3.80005598914240    2.97063254321635
O         4.33357550448305    5.34727321611325    4.97483641519425
O         0.95845880273538    3.04884990910239    6.94039485139257
O         1.52316248603036   -0.10349762288890    3.67519743409753
O         4.65186931172087    2.26157697571671    1.92078975344243
O         4.89322544285467    1.22549789845849    6.15528282735454
C         3.71073527068197    4.40927761113373    4.76883949187236
C         1.60845869529164    2.92300217258635    6.00738069906386
C         1.93011128828310    0.92593656079676    3.95904793531326
C         3.94467258252487    2.44009228958786    2.80110719439908
C         4.11082747184554    1.76212520855478    5.51447089081302
C         0.05132620995908    5.08778453041960    3.40784638350349
C        -1.07043260378105    5.97574503957449    3.19165863225104
C        -0.07567378418943    6.41369725090111    3.96467468772645
C        -2.35181285020329    6.13101746216477    2.48136559651895
C        -2.89888932636336    7.54644370830614    2.68024167699201
C        -2.09550770123240    5.85597086218510    0.99319179436909
C        -3.34172236178294    5.09265723225436    3.02584215719922
C         0.61140374405791    7.39684679577140    4.81750969735625
C         1.02420154765117    6.68555425644092    6.11258575077417
C        -0.29859996006263    8.58780431980501    5.12411072077065
C         1.86490142658254    7.85738130500956    4.06003929166203
C        -0.14513489991271    2.72198433718857    2.06606301134075
C         0.04191719609312    2.54334566703978    0.69120365924092
C        -0.81805569651695    1.71649904408485   -0.01047985917574
C        -1.85817584748351    1.05174706931660    0.62715333156052
C        -2.01475594852588    1.22166433348717    1.99374248375632
C        -1.16948532740833    2.04101080204762    2.72993079872365
C         1.16771122873588    3.24812551069631   -0.00203336943087
C        -2.77299847863736    0.15922660574351   -0.15418213005562
C        -1.35177640761553    2.14592836784484    4.21402934425376
H        -3.07468820730626    7.74482052614040    3.73470074294731
H        -2.19596047456639    8.28452163517278    2.30055991708246
H        -3.83899502326274    7.66084769529021    2.14600259840328
H        -1.38584003201416    6.57439384562487    0.58768789586198
H        -1.69250788538213    4.85450215851739    0.85833059510808
H        -3.02563462096375    5.93534800315090    0.43597434040602
H        -2.96913225286757    4.08720584017627    2.84786988181458
H        -3.49232030920322    5.22780499524209    4.09497011697328
H        -4.30060341057952    5.20116019330900    2.52487281010655
H         0.14728014637062    6.35664713736760    6.66673950276775
H         1.63416201419232    5.81212522508164    5.88547083775590
H         1.60049000743670    7.35880861544713    6.74208957410762
H        -0.59241911115039    9.09357496160179    4.20756719590518
H        -1.19657190458249    8.25926625528919    5.64274401931996
H         0.22371026843522    9.29958296732442    5.75864668627447
H         2.48505034661072    7.00184423116717    3.80142503641672
H         1.59059784056256    8.37539949175019    3.14312624892907
H         2.44628177327727    8.53340730479896    4.68170406841307
H        -0.67760750220714    1.58112578891230   -1.07395312088873
H        -2.80972081118784    0.69588277169745    2.50474836089424
H         1.06818749846953    4.32871818259320    0.11029123671121
H         2.12189234161696    2.95477601844680    0.43969431929956
H         1.18773842291736    3.00649510262367   -1.06203992717974
H        -3.17992521230241    0.68838453809137   -1.01464292412404
H        -2.22460047767962   -0.70609436119756   -0.52544806654989
H        -3.59580857289872   -0.19324313198727    0.46248105193787
H        -0.63049359555885    1.50037817772376    4.71991317974134
H        -1.18890543104445    3.16403741257605    4.56514390534232
H        -2.35053191940808    1.82694391354890    4.50472335376613

