64
CSD_code = SOTMOF | q = 0 | S = 0 | Stoichiometry = C23H31IN4O4W | MND = 7
W         2.37411281148497    1.45575792084392    4.41194162255732
I         4.09121754750592    3.16201711050314    5.85524212351453
O         2.11893011587527   -0.55816318368093    6.81418845987374
O        -0.35400065670039    0.01135167075437    4.96091112305085
O        -0.16670277944694    3.14133280913265    5.18316091006596
O         1.19072680075057   -0.25921587878589    2.03721555265168
N         4.27856653115120    0.45576469629490    3.78218578433853
N         4.42957283685695    0.36922451779016    2.44318147154788
N         3.26309730830266    2.24670337748315    1.60655689669391
N         2.79689872973698    2.86121321367571    2.71455825963348
C         2.24974281082140    0.20303029883886    5.95402582680431
C         0.65654434598656    0.53971691078888    4.74215263498807
C         0.79468210349162    2.55889482121132    4.91362503063035
C         6.89053894231883    0.31680996847763    6.23078160154029
H         7.71853582037346   -0.18020319831997    5.73102356824436
H         7.01398812369111    0.20149066808031    7.30381099651070
H         6.92197721111584    1.37815121842837    5.99839041726387
C         5.55235569194776   -0.28406595790647    5.79933247766586
H         4.74878269817525    0.23238616502257    6.33166917347188
C         5.47707140747405   -1.77315195176839    6.14867475398304
H         4.51723011258902   -2.18916652363998    5.84933769798206
H         5.58681862973182   -1.90295768578919    7.22186798126038
H         6.26829221904033   -2.32795764066816    5.64912645154959
C         5.34796995385333   -0.11456331239414    4.32924807930946
C         6.19768306157033   -0.56696615003453    3.30992376195847
H         7.13605576192637   -1.06442895326252    3.43653262621561
C         5.58458811437253   -0.25253566245481    2.11523344135266
C         6.05807012505646   -0.47022264315646    0.71570217875084
H         5.21621642252438   -0.34448656069040    0.02562886940938
C         3.31359170376485    0.81535660130579    1.66241416367484
H         3.30766153147543    0.36894486206866    0.66456040356552
C         2.02791227151189    0.43083664592965    2.54642308256139
C         2.70646375807750    2.39160837398612   -1.63267304872257
H         2.08024505202395    3.27309567662856   -1.74686089071162
H         2.10419503576187    1.60262471999644   -1.18629440812046
H         3.02853719987460    2.06564015282069   -2.61851168227963
C         3.92557522389252    2.72142392884641   -0.76234633553411
H         4.54795136687460    1.82392796248178   -0.67365173879810
C         4.76483092059589    3.82498580450469   -1.40469601756643
H         4.15856222686384    4.70687522035987   -1.59134510694233
H         5.16624211238739    3.47967366688425   -2.35407364041409
H         5.59395678623211    4.10427563976639   -0.75870932214999
C         3.46593920797633    3.12559757014171    0.59978099030985
C         3.11514057075351    4.36152207241993    1.10039663373971
H         3.15063505201577    5.29681042934793    0.58299982994200
C         2.69766530648372    4.15484344926932    2.42366754819872
C         2.15923061425095    5.18723057454957    3.35954904032750
H         1.96979498065824    4.72119582901417    4.33057445435478
C         3.16551184035717    6.32251589604173    3.54958400670372
H         4.09274980128594    5.94027009910491    3.96860040004228
H         2.76054868971405    7.05828268888799    4.23852666411475
H         3.38006690925446    6.81383142967887    2.60355809563509
C         0.82816740881674    5.71279146105735    2.81430553950501
H         0.97026344738289    6.20305649026069    1.85367449683618
H         0.40538966440629    6.43141125269150    3.51106730189918
H         0.11745498946397    4.89849038155398    2.68830712370152
C         6.60076705343106   -1.88985376347604    0.54775793349553
H         7.47446770151316   -2.04238923245542    1.17494097704539
H         6.88788458804267   -2.05733925579206   -0.48729545756618
H         5.84549288984235   -2.62315507351758    0.82080925381705
C         7.13303945932128    0.56876508772162    0.37594977818664
H         6.75426019956848    1.58034401961259    0.50890202806357
H         7.45520267897669    0.45087366658858   -0.65571226938507
H         7.99513895563281    0.44047560693610    1.02539039961096

