57
CSD_code = SOTNOE | q = 0 | S = 0 | Stoichiometry = C27H23CrNO5 | MND = 9
Cr        2.85844295032064    0.54144702851257    0.79286264080687
C         3.17745080344469   -0.31187173683080   -0.78460769999596
O         3.39751921638992   -0.92032244908837   -1.74309224366238
C         4.45050220458683   -0.23002085150199    1.22630023958409
O         5.43395267149977   -0.78551785435396    1.46695105917083
C         2.25342045570635   -1.11508829989171    1.23253044500204
O         1.91886013864748   -2.19168049096387    1.49775349459950
C         2.72726499822978    2.02041964671875    2.47557117907390
C         1.40633206853101    1.60579489937576    2.22401180173544
C         0.90595117463143    1.71068087248190    0.90519096120605
C         1.67202142833796    2.23717515176370   -0.13318514025386
C         2.95923801356931    2.73368657564466    0.13976093659410
C         3.47596030374338    2.60310307328375    1.42360856324452
C         3.38499531464341    1.97432763963701    3.85634534116655
C         3.19326195519350    0.61589139927851    4.55732907911870
C         2.70751034410422    3.11333991165264    4.63629942991182
O         2.01242997167388    2.98144687130609    5.61064176967877
O         2.90324140419745    4.28437120533648    4.02183533072996
C         2.25291043160349    5.40634762735188    4.60096011449980
N         4.79653885450270    2.14493476656013    3.65165389292395
C         5.60882400035270    2.71776053197956    4.43901866236003
C         7.02942241308048    2.70008010074603    4.05400518533432
C         7.41694462035596    2.03786778559135    2.88684643466224
C         8.74358297471595    2.00706293936806    2.50790458878631
C         9.70556594042020    2.63205098133298    3.28710276506317
C         9.33272573308583    3.27990211250380    4.45291460156055
C         8.00523172034033    3.31296022089577    4.83901249043642
C         0.45669672372286    1.12177251973005    3.28490217968796
C         5.25394028009562    3.42161074076793    5.69989537695799
C         4.87496617363706    2.72049073702985    6.83844939494789
C         4.53905186903109    3.40054568588192    7.99552708796787
C         4.96926186491437    5.48860361014921    6.90051540593112
C         5.31087054452967    4.81249522250352    5.74334243818803
C         4.58063366729163    4.78358790762574    8.02837486798864
H        -0.12331926628481    1.42657082363614    0.71699351712200
H         1.23662072290836    2.36575563108357   -1.11726280384898
H         3.52446434568825    3.24388205125976   -0.63033168524396
H         4.44860834987547    3.01490616314125    1.66015540588619
H         4.10553752262192    0.35169257629470    5.08576305646178
H         3.00233612437451   -0.16365604599748    3.82343727676036
H         2.38230756308142    0.67153192568450    5.27761030687371
H         2.56448142854326    6.27076062688526    4.02079724599961
H         2.54788415802131    5.51563047287117    5.64623121276342
H         1.16944459791723    5.27958095011367    4.54965545847695
H         6.66128976651395    1.54098479063677    2.29950789671887
H         9.03083101313653    1.48984123194328    1.60474126347473
H        10.74359242627400    2.60927162198520    2.98965370557621
H        10.07997613155804    3.76015543134231    5.06761856652039
H         7.72983894741525    3.81325805980409    5.75606125050950
H        -0.57181371624663    1.25728805141487    2.95247510667156
H         0.60070834379848    0.06044489463315    3.48293600079303
H         0.58530485979445    1.66222924859632    4.21892006648683
H         4.85028681559746    1.64145914582078    6.82304392158133
H         4.24144748285510    2.84676765930535    8.87305504728867
H         5.00868524211481    6.56842990092931    6.92235176492996
H         5.61055528049928    5.35851836986402    4.85946178895132
H         4.31180863083371    5.31284033636072    8.93049195423165

