53
CSD_code = SOTNUL | q = 1 | S = 0 | Stoichiometry = C14H28CuN2O4S4(1+) | MND = 4
Cu        7.09157033885512    5.81996251263603    9.48569788936639
S         7.31087211525186    3.76082848672041   10.24718126570146
S         8.53247650251405    6.13885912731075   11.12574440066273
S         6.86975817426681    7.88003805716190    8.72734471696144
S         5.63640538968233    5.50476148447236    7.85785217572441
N         9.00766237650283    3.79182312635511   12.31156065643905
N         5.11444053513771    7.86221453736430    6.71259615891863
O        11.32288440958750    4.80298117699204   11.21281877811446
O         6.50621428460679    3.01032835745575   13.13643944874943
O         7.58450351057825    8.67242551287772    5.81714010229232
O         2.84967704251943    6.85072267069965    7.89432409433926
C         8.37997659459396    4.46125737463746   11.37197403926379
C         5.77272545451357    7.18582492647833    7.62586444446466
C         9.99539885074763    4.43926295329556   13.14746217190758
H         9.98052192913752    3.98881007000503   14.14007118878719
H         9.74636020329671    5.50079474429621   13.22254263643376
C        11.38809711177994    4.29894339821408   12.52291026319993
H        12.11191249712195    4.86428991600391   13.12726627168749
H        11.70275654967148    3.24296063854269   12.50804608667074
C         8.72000947043684    2.39234642402747   12.53998096164726
H         9.62286498135062    1.88892852754434   12.88614850910312
H         8.38961854321417    1.94646078160800   11.59849214326201
C         7.60143231856092    2.24857073981081   13.57844392570811
H         7.33132888887248    1.18705715566495   13.67203558678395
H         7.93842042656215    2.60605091411891   14.56481118339826
C        12.57235490814181    4.82671179401448   10.56064383104144
H        12.39319571288607    5.23873734019177    9.57072979930708
H        12.98924785961015    3.81759307193266   10.46943886889623
H        13.28575759758888    5.46015894580882   11.09793015328514
C         5.36678194834140    2.87865513074861   13.95572878538578
H         4.59691995125451    3.50517526963916   13.51225188008688
H         5.57363410314503    3.21721404290843   14.97700638165857
H         5.02137190958129    1.84012507092012   13.98720357229170
C         5.38693563869488    9.26595234192504    6.49210121332735
H         5.74666151482640    9.70210653921294    7.42741559221701
H         4.47041974604231    9.76857454921455    6.18267164309319
C         6.46918829582421    9.42892042926028    5.41880059628482
H         6.10240449282580    9.07787281150425    4.44077292974025
H         6.72741635927317   10.49357808416221    5.32658800462063
C         4.09693777448898    7.22120286987658    5.90813007182896
H         4.34419833106902    6.16088404582069    5.81350504367644
H         4.07336212145910    7.68094944418785    4.91998597042871
C         2.72940386684009    7.35482535074979    6.58799628319089
H         2.41118809908632    8.40943936496450    6.61666952115279
H         1.98411926053505    6.78693122733155    6.01299396337303
C         8.69325458731331    8.81751068136798    4.95884673753573
H         9.48386415104057    8.19650226192958    5.37249964272123
H         9.02785529565509    9.85930520725738    4.91935574872010
H         8.45363018375407    8.48084025579586    3.94410852966848
C         1.62966516294696    6.83058661228824    8.60000666467431
H         1.85192149390835    6.42532450104412    9.58400249103560
H         0.89406356234597    6.19329149717732    8.09845395327664
H         1.21645757216548    7.84012764445543    8.70261302789815

