47
CSD_code = SOTPID | q = 0 | S = 0 | Stoichiometry = C12H28Cl2MoN2O2 | MND = 6
Mo        4.99752070896454    7.35199694686360   10.76601002119711
Cl        5.25832282805679    9.18376690613108    9.33551176740991
Cl        4.22806379907606    5.15747592275315   11.00534152447621
O         5.43888156002171    6.27387438391186    8.45628475072729
O         2.91669671694468    7.26071538214139    9.22130920050455
N         6.66282778154279    7.12533783864334   11.21297296951395
N         4.06714566001863    8.11187816917139   12.02301677748351
C         4.24656902245788    5.88007302671620    7.81038178608052
H         3.81510794494785    5.00054805775049    8.31479793017090
H         4.46042312990966    5.63095755881827    6.75934276282040
C         3.26308818170866    7.04022339914103    7.87033533762181
H         3.72910897371415    7.94435158084515    7.44649217644264
H         2.35954439862579    6.78931418229408    7.29309898688941
C         6.42184597279990    5.25997825450524    8.44069206401774
H         6.08260873152668    4.37561921285576    8.99331578996169
H         7.30365115004209    5.67944297652139    8.92097198880427
H         6.65794525609394    4.97946832505039    7.40669439564659
C         2.00276934476559    8.32600960234171    9.37720292135265
H         2.44235612172891    9.27282832867748    9.04089994825001
H         1.77470788859917    8.38146426576676   10.43986709316266
H         1.08636135236845    8.12342297681143    8.80913953380546
C         7.87890376519390    7.09904979472400   11.91296430904839
C         9.04420651834236    6.68993215453714   10.99161210578648
H         8.91231236463929    5.66461422271241   10.65188436675861
H         9.98844062465988    6.76051887823716   11.52588182776830
H         9.07827816257727    7.35006684902398   10.12691585715313
C         7.74955525832543    6.08280933315043   13.06301741272661
H         6.90578144664261    6.35762251747252   13.69278535707282
H         8.65945777956116    6.05996436732634   13.65735727927754
H         7.56035437047845    5.09171025599090   12.65468465758702
C         8.14841839694322    8.50590354058007   12.47920471402553
H         8.20108302390825    9.22106057627620   11.65977876666668
H         9.08146903776895    8.52592904865023   13.03663419638411
H         7.32787078779806    8.79253011266695   13.13305033126469
C         3.65422718517794    8.77228976851086   13.19050459918565
C         4.27642824902822    8.07075854792439   14.41227072912391
H         3.97381363632157    7.02479446676282   14.42056594349816
H         3.95505013919318    8.54701573691671   15.33514628209782
H         5.36039363804468    8.11669891920311   14.34108287072013
C         4.15283947586308   10.22769447855874   13.11066939251196
H         5.23307088744229   10.22998974600424   12.97386213022974
H         3.89644284108683   10.76990487708619   14.01715851007415
H         3.70120511974939   10.72378706804286   12.25349534702186
C         2.11923166127875    8.75536586209162   13.32497161628423
H         1.66296799350301    9.33818628739077   12.52746985410646
H         1.82060489608759    9.18112446466335   14.27961127709127
H         1.75834621662223    7.73033082744246   13.26614054063085

