48
CSD_code = SOTQUO | q = 0 | S = 0 | Stoichiometry = C19H20N6NiS2 | MND = 6
C        -2.20036211364490    9.36236852566137    8.23738929734461
C         3.31323985221438    9.47276335973966    7.05772261005991
C         1.44404802799658    7.29371437036950   10.16941540002015
H         1.53141078456236    8.19220565619246   10.76444935310214
C         1.78349619907852    6.05795588176820   10.69834041245576
H         2.13037442303682    5.98149888996202   11.71648751651263
C         1.66616406852292    4.93319082437568    9.89659750609488
H         1.92095329866267    3.95446102067371   10.27396166556828
C         1.21679970183732    5.09387205613497    8.59900513303192
H         1.11749521513888    4.24675145634967    7.93745135331971
C         0.89677456630340    6.36994944888547    8.13835841624854
C         0.42496473688143    6.57203536737983    6.76921025117750
H         0.19051662350579    5.66578410066061    6.20535370871854
C        -0.11649606790362    8.07714372670809    4.99599547890861
H         0.78578722952582    8.05224113806217    4.36392107846798
C        -0.63535524721964    9.52438787929435    5.00055117439864
H        -1.52231650776493    9.58705218009674    5.63125291076866
H        -0.91816057727669    9.79058073876623    3.98131834048144
C         0.39642322903980   10.54432376870066    5.50286268559104
H         1.40316899615326   10.21323159243263    5.22089264270711
H         0.20804528577876   11.52033113796186    5.03204925691446
C         0.24486630253216   11.82949786782475    7.45372979825424
H         0.12805332254400   12.72750056391337    6.84117804914366
C         0.23559132013254   12.00569486107076    8.89840785772454
C        -0.14207665244949   13.22037872880121    9.46887009741474
H        -0.42216468687149   14.05038267834188    8.83845936250238
C        -0.16354135594383   13.33222378873139   10.84767869800173
H        -0.45605604994873   14.25782180591475   11.32059583963050
C         0.19796421021627   12.22988988336913   11.60472327965619
H         0.19833285997658   12.27141822681426   12.68250823903547
C         0.56723288628719   11.06292086674701   10.94764365815329
H         0.85760123568398   10.19108145850501   11.51821259454067
C        -2.43247145341788    7.00067442341354    5.20449197760892
H        -3.05819379121956    6.20391241685728    4.80890543341299
H        -3.00284563168273    7.92415795979680    5.17095512198772
H        -2.21302708676823    6.78076632197148    6.24695970303080
Ni        0.66528433741308    9.15895127870015    8.11723348256827
N        -1.11715743075096    8.99550910815104    8.52023843113096
N         2.47050740243628    9.33458604206749    7.86926537874040
N         1.00810625184484    7.44810645001270    8.92884771608616
N         0.32961249340598    7.75067297487996    6.32087805363225
N         0.37317985583483   10.67997050577426    6.93355079575708
N         0.59019950442429   10.94335957162958    9.63323936684201
S        -3.69603438038454    9.78209319267626    7.93094062579411
S         4.51662361688574    9.66514250566558    6.04731645503391
C        -1.15103040087806    7.11357050177529    4.38471288650348
H        -0.69884430245556    6.12559905137776    4.27235834264347
H        -1.38968410127646    7.46917384503752    3.38081256327389

