55
CSD_code = SOTQOK | q = 0 | S = 0 | Stoichiometry = C14H34Cl2MoN2P2 | MND = 6
Mo        2.98694858605728    4.84422698431320    4.10083369164362
Cl        2.59662033103916    2.27962178783724    4.16733557119849
Cl        3.32308004906128    4.75575878455055    6.43818092008434
P         5.19747875421189    3.67481553011439    4.26525636311371
P         3.27114820924881    4.08264990565697    1.79233864268466
N         1.27295263113761    5.14773438910804    4.05837441320955
N         3.78332126638425    6.37646627553118    3.78869684047248
C        -0.12190074258302    5.20403169842754    4.10709044528821
C        -0.68659092391165    3.85496960934446    4.59075788996592
H        -0.36832531556434    3.06008104429142    3.91865278825487
H        -1.77326830021711    3.87804412692599    4.63060786621108
H        -0.29546067412942    3.63702707328650    5.58333313450105
C        -0.66747633247798    5.52826781461164    2.70294120319144
H        -0.23619875815526    6.46188452105783    2.34668250284603
H        -1.75034272993995    5.61901887463312    2.73055942819178
H        -0.39387961013299    4.73211354024704    2.01225230570029
C        -0.53005463359456    6.31962139192847    5.09024389773071
H        -0.06280258737178    6.13317821971594    6.05594516693675
H        -1.61024440160851    6.34383028957053    5.21122281668561
H        -0.18680544791591    7.28397589770469    4.72146618473079
C         3.95493849311518    7.76253965051734    3.69912145318898
C         2.78364319881387    8.38000997533730    2.90958428949107
H         2.88169769339428    8.16221775671806    1.84862762731955
H         2.74881463468914    9.45766083007861    3.04724718769213
H         1.86136709670602    7.93126184960149    3.27339973814036
C         3.91627959311796    8.29112608575512    5.14698580699283
H         2.96306479494131    8.01331833296835    5.59486434737317
H         4.03449426814647    9.37174399068074    5.16620278866268
H         4.71264064894316    7.82991727620476    5.72792345547678
C         5.29464547344848    8.15380425986465    3.04352397796845
H         6.12558172432515    7.81534337068341    3.65791548797637
H         5.35912399375665    9.23339708557437    2.93337857619439
H         5.37917718718961    7.69668334982959    2.05831842686986
C         5.51236499360742    2.71664407306978    2.71224040427218
H         6.57789372170076    2.48163135693929    2.61521870133296
H         4.94967645510916    1.78126189525556    2.79384478682232
C         5.01556628554842    3.53390667889039    1.52581527237054
H         5.08506448860139    2.97113385630283    0.58764703334721
H         5.61372307105623    4.44831771332951    1.42966676642020
C         6.69884261120733    4.72464056178740    4.35802342856192
H         6.63825782347319    5.29994525742335    5.28242275397758
H         6.71451078210724    5.41942090068007    3.52003241852700
H         7.60750764953873    4.12146014902402    4.36191233051277
C         5.59655405930806    2.44494638592346    5.54996363380353
H         6.56942979953803    1.99462121310903    5.34565605480213
H         4.82216106209514    1.67885023283204    5.56689043718789
H         5.61088746308685    2.95483196540164    6.51483444933205
C         2.29736738115539    2.73468647574867    1.03573985464200
H         1.24302033177091    3.00798973849110    1.08398810796365
H         2.43886248968924    1.81619632554713    1.60266821397665
H         2.59722810136179    2.59738617407486   -0.00412391365029
C         3.11642820520153    5.35866939047158    0.48818004276643
H         3.40502767387896    4.96441807085997   -0.48731889610688
H         3.74710490694209    6.20642143545883    0.74933991932315
H         2.07895247390984    5.69267857671145    0.46029296383042

