154
CSD_code = SOTTIH | q = 0 | S = 0 | Stoichiometry = C56H88N4O5Zn | MND = 5
Zn        9.98272949914022   10.01720416908619    0.70061689034727
O         8.94823508602602   11.30821511902249    1.59960295601016
O        10.12079152278479   11.26881247355207   -0.88651529339065
O        11.78731308880115    9.57828821216726    0.50579221292492
O         9.64115497328024    8.61861476926414    2.00571497661899
O         8.77130267943067    8.89440303912137   -0.70453756926374
H         7.84762933122871    9.07384917712514   -0.50091696480959
H         8.97910791741857    9.35322439637390   -1.52682302253219
N         8.46461031265581   13.51558951552698    2.14459950824653
N         8.69584427952742   14.75660400311586    1.62938797820470
N        13.43946282223727    7.93922780492167    0.49408773666158
N        13.66597390883519    6.73187555622586    1.08566675048445
C         8.99480587498915   12.55000746341548    1.34181491589289
C         9.58650999373688   13.23213117598053    0.23547412499612
C         9.35580320028360   14.61962089157249    0.51615440612593
C         9.72619804681994   15.83044402950788   -0.26282295064612
H        10.80744382557471   15.96254864628057   -0.28116010658059
H         9.36472736956357   15.76171391056399   -1.28670128754118
H         9.27875633272722   16.69573351868478    0.21893248302036
C         7.67388655802455   13.39436088879504    3.29327288989563
C         7.43274998794518   14.53428497046405    4.05608216897265
H         7.89368469940363   15.46244742668262    3.75968205570677
C         6.60284979912343   14.46253223717427    5.15774204020790
H         6.42028787618194   15.34901346787891    5.74729259690989
C         6.00021589453578   13.26343790835225    5.50189821520390
H         5.33903306051580   13.21405715817532    6.35379087871207
C         6.24981797332501   12.13053522150637    4.74623614417256
H         5.77927897906009   11.19420100204900    5.00651063243046
C         7.08951294341387   12.18315838654212    3.64861160456979
H         7.29102051734822   11.29823322536203    3.06811197081207
C        10.79836394157447   13.27120167374605   -1.98488658909906
H        11.21742297343564   14.20939630358647   -1.62754600176904
H         9.99502741445562   13.51135602131625   -2.68975804092096
C        10.16696172111769   12.52224325985863   -0.83115976867974
C        11.87533157291310   12.45631420502333   -2.70070157245654
H        12.74248319969769   12.36810287179662   -2.04394678540284
H        11.49965826741020   11.45077306980059   -2.88849827342944
C        12.28764632223964   13.12240552454477   -4.01172570916663
H        12.44728819596076   14.18938318052174   -3.83152068670532
H        11.47475247526381   13.03034234905656   -4.73654278492944
C        13.56778511359314   12.54285681584438   -4.61198497798766
H        13.81620946003266   13.11243875039722   -5.51164879508914
H        14.38883443193134   12.68048120109317   -3.90472968930980
C        13.46431487777872   11.06442112262909   -4.98024141198589
H        12.59900627802639   10.91420279856654   -5.63047646279495
H        13.31798008878429   10.46553400437259   -4.08018304540419
C        14.72385239917058   10.58584830274620   -5.69800237181758
H        14.87713823737129   11.19187458705269   -6.59503013056686
H        15.58729700783575   10.73707927622408   -5.04700224075690
C        14.64909902708124    9.11467670703228   -6.09802998298162
H        13.76499631065244    8.95648270691595   -6.72081110208672
H        14.53975312328080    8.49874221852612   -5.20256593212719
C        15.89154590888592    8.68111095374202   -6.87275002283522
H        16.04323309597868    9.36583393981558   -7.71138802909829
H        16.76740205859996    8.75691257803433   -6.22445179242600
C        15.78175907242261    7.25755530313641   -7.41361186316468
H        15.67575366457894    6.55669268408946   -6.58268710608531
H        14.88257794212164    7.17738880363012   -8.02965453214258
C        16.99880191533943    6.87861647361467   -8.25472149376993
H        17.89350201098400    6.89764786064798   -7.62814202991635
H        17.13316849008947    7.62566952548238   -9.04126023596172
C        16.85979163790617    5.50157954005119   -8.89940655839360
H        16.76332830331137    4.74133544587107   -8.12098555795450
H        15.94645494166043    5.47695074048511   -9.49895495501342
C        18.05378411284757    5.17039953531566   -9.79189780384215
H        18.96402860439078    5.15407907266384   -9.18785845634797
H        18.17004818075231    5.95904581110354  -10.53956206586826
C        17.89460301006858    3.82915361157889  -10.50375608765170
H        17.79905965629225    3.03273094050739   -9.76200625480749
H        16.97466217983876    3.84204009964218  -11.09344826522006
C        19.07636018799343    3.52833937745705  -11.42280492280345
H        19.99485838184275    3.49739549286846  -10.83171651452374
H        19.18070753959376    4.33785049027997  -12.14958863930118
C        18.90985323503355    2.20559633029181  -12.16660962800371
H        18.81295469024758    1.39282414912889  -11.44279861322881
H        17.98866469481891    2.23551651890823  -12.75369347594514
C        20.08770796260971    1.91692337140580  -13.09444813555426
H        20.18728094569403    2.73317445457626  -13.81386608620554
H        21.00829306525377    1.88088959527948  -12.50727326369995
C        19.91334744522213    0.60160894369738  -13.84371077669223
H        20.76299250815855    0.41664159936738  -14.49707831941906
H        19.83096128804664   -0.22776331083860  -13.14446922856310
H        19.01163225824272    0.62592187725659  -14.45199303325689
C        12.23884699421804    8.45465638194637    0.88700897927282
C        11.68166591422140    7.51303313382826    1.80083318181584
C        12.66049056364345    6.46786187375735    1.86901386756765
C        12.64173203369569    5.19717800951282    2.63920817252923
H        12.71354926113725    5.39095574717416    3.70841234119857
H        11.72520087190509    4.64265888997077    2.44962076686029
H        13.49571733047901    4.59778386573010    2.33589818833262
C        14.36430715244456    8.42777125853354   -0.43473979891793
C        15.38598748666688    7.58243518294512   -0.86213229438761
H        15.43445265191519    6.58492175390035   -0.45667528022132
C        16.31033545281363    8.02977959393392   -1.78551790501373
H        17.09739462348090    7.36817192031730   -2.11645713710022
C        16.23129907399440    9.31917087163416   -2.28568382263312
H        16.95707500666247    9.66734361419247   -3.00570130309653
C        15.21961039262674   10.15920942482143   -1.85304813093894
H        15.16097798628796   11.16879566249079   -2.23139097040343
C        14.28296793701886    9.72379936319981   -0.93330688817339
H        13.49089309465013   10.37433541133848   -0.60247967891972
C        10.41267784142765    7.70417347719203    2.37827900311613
C         9.95113872950456    6.77402253133209    3.48091378485292
H        10.80085009670352    6.53832594536176    4.12151018520614
H         9.62101275940590    5.84369847809430    3.01011599215886
C         8.81559719633382    7.35993341824045    4.31811306715395
H         7.98478701348300    7.62356553719286    3.66282505144475
H         8.46984532456068    6.59545124180186    5.01857786201838
C         9.25474786585299    8.60032416790588    5.09498968023445
H         9.44295397717924    9.41324381896040    4.39210831648892
H        10.18880880252838    8.38967664681617    5.62289484923484
C         8.19695674225602    9.03980741107736    6.10359975937318
H         7.23954990749048    9.15229160832517    5.59059904919257
H         8.07485090050337    8.26327822731785    6.86382205735047
C         8.55764319206487   10.36025248404452    6.77971415652847
H         8.62058109194652   11.14283772981706    6.02044217404494
H         9.53989456745465   10.27392463656219    7.25014340596569
C         7.52458980860235   10.76152124699523    7.82962068481771
H         6.53099505726840   10.73943760643146    7.37720528829878
H         7.53046796224216   10.03357751482407    8.64477239867828
C         7.77756803096293   12.15819010689415    8.39092083012402
H         8.75157084615259   12.18439315205248    8.88464421744786
H         7.80510112244145   12.87270723596832    7.56491868484527
C         6.69224742309841   12.57316610179176    9.38130413378087
H         5.71547937514864   12.48483806640843    8.89914216972478
H         6.69829169395523   11.88909137388740   10.23347424425085
C         6.87314046071787   14.00409615654744    9.88121972010818
H         7.84798462264624   14.09840788840671   10.36518773835056
H         6.86144598734218   14.68731693470467    9.02872289767131
C         5.77753402402844   14.40261051898940   10.86738744999575
H         5.78900269234980   13.71221929006095   11.71440885234489
H         4.80341316880983   14.30869288929019   10.38100177332394
C         5.94635204676489   15.82995013871567   11.38220250756679
H         6.92574718262042   15.92919450613458   11.85625586407157
H         5.91641934124996   16.52503930641283   10.53979418316351
C         4.85941512532874   16.20463850915964   12.38706700800961
H         4.88771858603871   15.50335750975062   13.22465551702564
H         3.88017762109224   16.10898593483293   11.91163540598193
C         5.02502518458559   17.62665661854065   12.91743644789295
H         6.00732826323655   17.72486671684705   13.38583838608915
H         4.98650329825242   18.33075794566457   12.08279460718805
C         3.94382320588290   17.98773350503843   13.93337228523568
H         2.96155104377182   17.89106705689949   13.46434285352262
H         3.98133570210568   17.28066370554034   14.76576971022436
C         4.10816360276234   19.40707094108076   14.47110788594277
H         4.07283681372476   20.11477846827244   13.63926900522319
H         5.08889580856907   19.50267552913548   14.94344466398528
C         3.02462560198979   19.76765184368637   15.48470832618947
H         2.04401841894800   19.67467250564798   15.01200819699428
H         3.05856816489765   19.05917578682777   16.31574934067071
C         3.19595365264060   21.18397689969206   16.02013725493430
H         2.41484017211909   21.41974729505277   16.73935285046947
H         4.15995129711963   21.29130098993598   16.51294056586532
H         3.14525797107254   21.90711435970438   15.20886252869928

