99
CSD_code = SOTTUT | q = 0 | S = 0 | Stoichiometry = C44H44N6O4Zn | MND = 6
Zn       -2.33160710142489    4.70824848759162    7.61303262038550
O        -3.11771193931337    5.42960801569415    9.29592939304583
O        -1.47774873625903    6.44162208684986    7.18007208915734
O        -0.67171497684989    4.04728163251721    8.49496107881395
O        -3.23959806889752    2.95787683263541    7.87302833368611
N        -3.27719358138972    7.16045747313506   10.84934815406850
N        -2.68561030243022    8.36530881427459   11.06743364113959
N         0.41847186487737    2.41766075203776    9.75448017334798
N         0.09861584244113    1.24493278914890   10.36369628107772
N        -4.05277879251720    5.14315043829277    6.47762042016348
N        -1.70934697533144    4.14790583683850    5.69086397334597
C        -2.72995710677778    6.54092610944893    9.74494397741203
C        -1.67119527598317    7.38865239500647    9.31205859735733
C        -1.72914940840280    8.50717917406051   10.18091717896719
C        -0.97779307023885    9.79187391027365   10.10308464649598
H        -0.59336222954984    9.93720155610082    9.09713576385841
H        -1.64853348418137   10.60860362661498   10.36002619301430
H        -0.14790525733852    9.81116978956749   10.80861557606026
C        -4.35398596785892    6.77280081527493   11.64250844716472
C        -4.70765107676438    7.56758107064457   12.73266845923654
H        -4.13053622232345    8.45631091543060   12.92960333581190
C        -5.77783537731664    7.21231460093961   13.52892133125168
H        -6.04461202213430    7.83280967649857   14.37204246266056
C        -6.50980358784707    6.06843800715066   13.25273432419945
H        -7.34793609953442    5.79374327909473   13.87610479653720
C        -6.15768716987985    5.28014946736519   12.17056313054165
H        -6.72899414267618    4.38905241058416   11.94824225863437
C        -5.08646605035478    5.62131018301574   11.36550754652416
H        -4.80307262433139    5.00623634746274   10.52752927225413
C        -0.89541652531139    7.05425586824762    8.14280514470500
C         0.48327413427989    7.33526732498566    8.04801808650419
C         1.35890467485714    7.66261296856929    9.20233682011453
H         1.96387792345917    6.77469322553241    9.42587253220629
H         0.77394724822328    7.88264085635717   10.09201069017574
C         2.32098617602155    8.81188466964217    8.87161750698794
H         1.75401775193636    9.73639507964486    8.74728487413004
H         3.01571282236502    8.95329016324728    9.70192298079602
C         3.08868962034224    8.51718862092280    7.58800709118193
H         3.71234447094972    7.63157208734677    7.73064197362958
H         3.74895398473452    9.35489122109203    7.35111177105980
C         2.12052094243210    8.27822963906378    6.43455627927182
H         2.67166910580726    8.06722432226753    5.51563930629277
H         1.52348591863231    9.17773757169031    6.26896251228082
C         1.18611619210595    7.10522181803820    6.75403655997681
H         0.44884415813692    6.96207242705272    5.96236405361824
H         1.79019854403496    6.19308617751096    6.82009951140604
C        -0.69347893543227    2.97887980614789    9.16151834845740
C        -1.78500649818551    2.13291205083237    9.51038940027045
C        -1.19587475785204    1.07095852616119   10.24166794260637
C        -1.81756304886048   -0.19779380330981   10.71614277140423
H        -2.72757507574391   -0.39801428172561   10.15708663595652
H        -1.11154023267716   -1.01207527019556   10.56959101717712
H        -2.05384839618444   -0.15270468658519   11.77869707848612
C         1.74797639916101    2.83004288557142    9.71902283441865
C         2.69842645648091    2.09943936772805   10.43182957447786
H         2.37098645573559    1.23916972721767   10.99256281716431
C         4.02502421876558    2.48027063731376   10.40617536954923
H         4.75468436340874    1.90951845406408   10.96196035483590
C         4.42432891177936    3.58644292715689    9.67309170593364
H         5.46322604418811    3.88106051383861    9.65297343084069
C         3.48004598434889    4.31128009823715    8.96635478254602
H         3.78776589968316    5.17255040892282    8.38895651857566
C         2.14713224531869    3.94385946520563    8.98470393105115
H         1.40703066215601    4.51006821008695    8.44397380071680
C        -3.11434310034304    2.41425703665069    9.02667788096744
C        -4.26849353109082    2.15746811901241    9.79485238790695
C        -4.27245317238107    1.91254556102277   11.25985533529682
H        -4.63929070873930    2.82271215795517   11.75091229307085
H        -3.26751044381426    1.73159336079450   11.63289492987010
C        -5.22054475451434    0.76552264597479   11.63564163671267
H        -4.82656508610091   -0.17485194220278   11.24557610561439
H        -5.27501221148492    0.68136265415461   12.72281921266366
C        -6.60991606309615    1.00645667429900   11.05645633036237
H        -7.26693525506217    0.17112255593668   11.31014074240147
H        -7.03674575016767    1.91121318868127   11.49557640348379
C        -6.53241946952539    1.16311193679551    9.54175769487705
H        -7.52809629003981    1.33699968186171    9.12799234831521
H        -6.14162781438298    0.24334097612673    9.10089139195072
C        -5.61084173414315    2.33071396505993    9.16996024957932
H        -5.49805091337931    2.41283446121877    8.08753711630330
H        -6.06801533763650    3.25915845508130    9.53102108563238
C        -5.22951953522340    5.43894800619714    6.99166761218946
H        -5.21759715868333    5.81133760267408    8.00517009331462
C        -6.41603248545837    5.27999624068979    6.29056663720444
H        -7.35986955967167    5.53288128254025    6.74694229024408
C        -6.35427453966184    4.77846012490077    5.00070764154650
H        -7.25473855445628    4.62106317231063    4.42510825468919
C        -5.11646624664515    4.47488146199996    4.45985430574389
H        -5.04244985513912    4.06238892887264    3.46605446077377
C        -3.97529332669155    4.67816492522665    5.23406255232126
C        -2.61943488155309    4.37819514542844    4.74954793814811
C        -2.28808673092612    4.35028071004822    3.39567279745699
H        -3.02687824539473    4.57332220502898    2.64219849168530
C        -0.98343288588515    4.06244757031693    3.03250181303848
H        -0.69950120902456    4.04100191864266    1.99046595765954
C        -0.05186555189234    3.80896962244520    4.02617458884050
H         0.97321353993670    3.57708603822589    3.78444026156599
C        -0.46790407811767    3.87037722326854    5.34822901548206
H         0.21402404173593    3.69400076141584    6.16661267806378

