79
CSD_code = SOTWOO | q = 0 | S = 0 | Stoichiometry = C26H34N14P2PdS2 | MND = 4
Pd        3.15972026690529    0.00341445997093   -0.00075486995811
P         1.97230007252362    1.86514025558480    0.44428979742675
S         4.45339921795894    0.23610006473144    1.97722198634116
C         0.12832115833890    1.67665685113354    0.53001722590338
H        -0.22904076387221    1.23797098462827   -0.41005761282909
H        -0.12284366262335    0.98787450058187    1.34604913854563
C         2.18830306808505    2.88270027125399    1.98501023908493
H         2.00855525419809    2.25499468270182    2.86641259124999
H         3.21944769111392    3.25483940327198    2.03467511352015
C         2.02084304753673    3.26536176812438   -0.77556529305791
H         3.04579310851606    3.65242089659608   -0.84315162205887
H         1.72732178723042    2.88963939412094   -1.76427286159146
C        -0.25870104712145    3.88478089279599   -0.33729649750956
H        -0.89437892519472    4.76403662148630   -0.19200179765178
H        -0.51700107179163    3.41044662699560   -1.28782595039475
C        -0.11752406782392    3.55899978219487    2.00271326235754
H        -0.75094119255884    4.43418347064289    2.17880248829303
H        -0.26912545270232    2.83961883542843    2.81162824933005
C         1.48562899540173    4.90629943075334    0.89521632719953
H         2.53807863099934    5.20139208377311    0.87290529403532
H         0.86835627136423    5.79566038803043    1.05679034891393
N        -0.52259389824880    2.95316536601197    0.74604192905860
N         1.26899429139982    4.00109199496222    2.01193933831124
N         1.12360175384620    4.33639303659670   -0.39233819997820
N         2.92871430421652   -0.66928837778587    4.12627810071930
N         1.95424377372977   -0.70244017944912    2.18225098154522
N         1.66100835788912   -1.12323972112588    4.25625555955447
N         1.12265598224361   -1.13039749658132    3.11744190000006
C         3.10280469918043   -0.39966117744125    2.79737617889192
C         3.77041547808085   -0.55667241335491    5.23828733990849
C         5.36046658378812   -0.37185343456623    7.49700236734543
H         5.98198482515269   -0.29886296645069    8.37652080623958
C         5.85946645558978    0.00329038319104    6.26149475487944
H         6.87098604968931    0.36974826486009    6.17364677704682
C         4.06049818583156   -0.84106493342602    7.60114659191139
H         3.66516623556728   -1.13507518396723    8.56161638851286
C         5.07239341880395   -0.08504370668957    5.12709570146832
H         5.46421949625586    0.21100495337452    4.16769710294069
C         3.26218041174672   -0.93622872760026    6.47859623818514
H         2.24890696914105   -1.29986901074460    6.53994181316450
P         4.34390077200235   -1.86132298200881   -0.44475929968104
S         1.86355959637750   -0.23263525324318   -1.97687154267816
C         6.18835194493657   -1.67524694805685   -0.52763617870135
H         6.54523754258265   -1.23691625721706    0.41278550958374
H         6.44167038969114   -0.98709116468960   -1.34352912473856
C         4.12898407865867   -2.87843036824612   -1.98588090079629
H         4.31138766490773   -2.25100269972508   -2.86692949839759
H         3.09732802385103   -3.24888505529393   -2.03725274473310
C         4.29163710769411   -3.26124373533175    0.77521481631146
H         3.26594959035106   -3.64664510657670    0.84121229871083
H         4.58426080713529   -2.88602497082165    1.76440154372332
C         6.57081727649260   -3.88399171035211    0.34047486977828
H         7.20554019467488   -4.76411413949183    0.19621889634422
H         6.82831396147830   -3.40995369818309    1.29137480233093
C         6.43376255323948   -3.55821607601751   -1.99976990500036
H         7.06613978349766   -4.43440908092968   -2.17461575122519
H         6.58783551794921   -2.83922963476008   -2.80856790724020
C         4.82686666477485   -4.90298211717456   -0.89471522137278
H         3.77391660722662   -5.19638698642961   -0.87397366013927
H         5.44295808765165   -5.79333045044152   -1.05533755959339
N         6.83764796414959   -2.95276221243546   -0.74251307130216
N         5.04661575946199   -3.99820683715692   -2.01117848470603
N         5.18783172805407   -4.33367583796605    0.39341921187392
N         3.38924316359202    0.66673046313640   -4.12784688376871
N         4.36420886117478    0.70116750123574   -2.18404750795901
N         4.65790131879524    1.11806432298267   -4.25877288816731
N         5.19639889510329    1.12603688335478   -3.12005009654975
C         3.21489175267980    0.39960077063217   -2.79850247214747
C         2.54756962462076    0.55356694709554   -5.23984957219969
C         0.95803435485964    0.36664115510421   -7.49876825272863
H         0.33671497558262    0.29264484649658   -8.37834785071297
C         0.45827227514258   -0.00602534873646   -6.26277230835217
H        -0.55362369801228   -0.37143241644269   -6.17479640433899
C         2.25838671533870    0.83459431846774   -7.60324700055213
H         2.65435010614989    1.12671442192607   -8.56403266221628
C         1.24505689973126    0.08336943472172   -5.12829618830199
H         0.85280496178223   -0.21075319791335   -4.16848717888849
C         3.05646751970572    0.93081227372589   -6.48056372962886
H         4.07008289657624    1.29344261219640   -6.54228732868598

