71
CSD_code = SOTWEE | q = 0 | S = 0 | Stoichiometry = C18H34N14P2PdS2 | MND = 4
Pd        1.64782463744466    5.04799331291490    0.00096858415431
S         2.85268995064913    7.09911352795843    0.03393370394225
P         0.73777873980220    5.44001006143813    2.02080817483444
N        -1.55329145308599    5.58519387334827    3.51446139865188
N         0.29171637819152    6.99446226507716    4.23599351808627
N         0.38200281930374    4.59188041192660    4.60628411689931
N         1.12247515799537    9.09060188419050   -0.69859786297494
N         0.20111506751619    7.13410295348075   -0.55264009588523
N        -0.69952408798343    8.04645959834335   -0.88831853707664
N        -0.18489437520939    9.19711907271867   -0.98264372056771
C        -1.11267329365279    5.39341947605758    2.14705334307241
H        -1.53244459375923    6.17882780967190    1.50636542259620
H        -1.47176425357787    4.42434326753392    1.77878150835167
C         1.00743805611854    7.01087774856878    2.97698663135676
H         2.08017893901171    7.14185044032736    3.16725616087486
H         0.65784597673268    7.86301405404094    2.38112923548280
C         1.11149494791178    4.25417057044857    3.40061595502978
H         0.83311588448122    3.23996886683541    3.08692845199817
H         2.18950554673476    4.26729910124770    3.60766047860150
C        -1.05701187006057    4.54086914816776    4.39439734269626
H        -1.54435151717207    4.65657833144342    5.36776198132185
H        -1.32181856836348    3.56569299971529    3.97674654256307
C        -1.14513860530301    6.87829266965352    4.03603753656140
H        -1.47522769396910    7.66116856930127    3.34825972266909
H        -1.63281904980436    7.02405853817685    5.00511579275521
C         0.73973309385342    5.91279881844660    5.09798114474601
H         1.82580140295422    5.97076847078941    5.20941796086274
H         0.27201110734710    6.04650646649911    6.07852399467158
C         1.36221008107602    7.78347233144153   -0.42746767916086
C         2.04225473142056   10.19065714803329   -0.73211292131015
H         2.62973008158455   10.17324957298748    0.19106112843915
H         1.43914093189564   11.09990777821148   -0.77151972299739
C         2.96768789051812   10.09429626349942   -1.94005784512285
H         3.63562517356218   10.95019706622073   -1.95882751427372
H         2.38991325890961   10.07800708164073   -2.86175437990579
H         3.56544120295663    9.18746911296541   -1.87589129887797
S         0.43918966833229    2.99797002481377   -0.03362152455843
P         2.55236012824561    4.65415757921926   -2.02105739758884
N         4.84336747075070    4.51122369147574   -3.51537801448960
N         3.00015411876852    3.09854755988276   -4.23505314322841
N         2.90643459691312    5.50087035290279   -4.60744114764122
N         2.16850913007253    1.00545745664615    0.69870362304213
N         3.09094056653295    2.96148206018824    0.55206119956450
N         3.99113554312988    2.04865383087204    0.88740781443093
N         3.47587289443651    0.89836763559598    0.98238666429263
C         4.40284794192785    4.70370721956570   -2.14801657204442
H         4.82395165810817    3.91943314656758   -1.50681561795133
H         4.76105990251621    5.67355927173828   -1.78076183433784
C         2.28493362759732    3.08211334884193   -2.97573788993474
H         1.21227865105957    2.94945321436956   -3.16531141664295
H         2.63619257609463    2.23116040919538   -2.37911493631497
C         2.17715308506018    5.83868423231056   -3.40162046581986
H         2.45429723097605    6.85363402018323   -3.08906834136422
H         1.09904775235192    5.82397429976810   -3.60808935531535
C         4.34549051437784    5.55403946680312   -4.39625708517678
H         4.83265334293103    5.43800554358670   -5.36968196915695
H         4.60914733328987    6.53001087920365   -3.97967673143876
C         4.43693080882035    3.21702395750817   -4.03568792658378
H         4.76843163743621    2.43522366889537   -3.34733050384121
H         4.92445713564686    3.07109669518360   -5.00482067802424
C         2.55026577194682    4.17894196192453   -5.09770850060020
H         1.46420297237726    4.11938765472693   -5.20855582962698
H         3.01765673837063    4.04499549732618   -6.07837076718582
C         1.92943126122211    2.31270759647495    0.42726419216389
C         1.24825814407783   -0.09420899993956    0.73281484136641
H         0.66009403075199   -0.07631761109250   -0.18984683945249
H         1.85102587062228   -1.00369295817295    0.77148367931361
C         0.32379887394249    0.00213156166876    1.94142152303231
H        -0.34424096366146   -0.85375893420494    1.96059162581876
H         0.90209606613981    0.01822284554040    2.86270181783198
H        -0.27389777699754    0.90894315709002    1.87748925438670

