73
CSD_code = SOTWII | q = 0 | S = 0 | Stoichiometry = C20H34N14P2PdS2 | MND = 4
Pd        0.72791529494560   -2.59452580314801   11.91197562264914
S         2.02279342191421   -3.27722660044572   10.03674667242541
P        -0.37980836402993   -1.07386065796362   10.67607637515531
N        -0.95485245048881    0.20226768435535    8.31771395236233
N        -1.11872504868530    1.54634191077085   10.33851473477703
N        -2.81391159704276   -0.12931078379791    9.85016841047026
N        -0.50887509009455   -4.22504088497409   10.31838366691139
N         0.43709956779201   -4.87094422109693    8.47892586459565
N        -0.80772787733947   -5.36892257200242    8.53036699855680
N        -1.33598921687313   -4.98309813742082    9.61233004869305
C        -0.28075568774307    0.71161869503714   11.17560904653052
H        -0.60661036320552    0.80852533046766   12.21912130238738
H         0.76125985378602    1.04934357462285   11.10656936785759
C        -2.22934957671867   -1.21130823207443   10.61705217625211
H        -2.50426778148725   -2.17448324506836   10.16952312289368
H        -2.62002103973325   -1.18815028743666   11.64214320477477
C        -0.09219808482066   -0.82906007577044    8.85587587834055
H         0.95687199987953   -0.55460177869246    8.68826654419339
H        -0.28498081104581   -1.76804087749881    8.32216834741274
C        -0.71040283873219    1.49152115381752    8.94452092123773
H        -1.28056449323714    2.24735837248328    8.39514717145340
H         0.35494354789803    1.72639354918034    8.87429870061434
C        -2.36121030496411   -0.14015064781544    8.46986798318529
H        -2.94917293914196    0.59654501906429    7.91324637031432
H        -2.53555822102877   -1.13185711948029    8.04430591538343
C        -2.52038899522418    1.16797753357587   10.43547950678800
H        -2.81598280745254    1.15998591286123   11.48789303219462
H        -3.11020087577069    1.92162366542011    9.90399514226839
C         0.61904848530918   -4.14087850093623    9.60757645839216
C         1.31960944079103   -4.99676362410486    7.35007286122141
H         1.07923489036810   -5.93874306234210    6.85200208511414
H         2.34473508774998   -5.01133792010185    7.72929519696262
C         1.11250286862072   -3.82651228636286    6.42866588780611
H         0.19961277349595   -3.85245428232207    5.84906550321051
C         1.93683900541221   -2.79858543542631    6.36907616575021
H         2.83558029511709   -2.76229182749601    6.96247551521281
H         1.74738351773857   -1.95577710796787    5.72659466832828
S        -0.56712612756920   -1.91159598315557   13.78709897136806
P         1.83584480919341   -4.11474966379469   13.14789289883702
N         2.41441339922321   -5.38836532577960   15.50677397710775
N         2.57295559802494   -6.73518703622456   13.48739563316805
N         4.27070622801475   -5.06051040872912   13.97021633952433
N         1.96471033461467   -0.96415239832237   13.50552902653715
N         1.01893384597177   -0.31843569125370   15.34514392193958
N         2.26384573968187    0.17932002004112   15.29375298856845
N         2.79203100976692   -0.20647166574995   14.21173632176151
C         1.73405768854488   -5.90077816737833   12.65091539323840
H         2.05766422985354   -5.99936622932578   11.60686291864049
H         0.69186445260953   -6.23741600024740   12.72251124050421
C         3.68562356877604   -3.97893568711537   13.20314575620614
H         3.96221573478919   -3.01543236649667   13.64894859132550
H         4.07429109941546   -4.00373772049318   12.17733519982046
C         1.55166622357756   -4.35691977128359   14.96900996970064
H         0.50268166843315   -4.63013358430956   15.13915352846777
H         1.74652604618411   -3.41745404054777   15.50109144560676
C         2.16749530491932   -6.67819435498491   14.88213647385314
H         2.73807449967631   -7.43384372073252   15.43133434166258
H         1.10207476375454   -6.91198792744893   14.95482161818876
C         3.82079263047987   -5.04747267811089   15.35140207931349
H         4.40916465002620   -5.78401215028157   15.90779590401144
H         3.99692368774132   -4.05538086929716   15.77532729045341
C         3.97477364336976   -6.35825550503997   13.38712568430580
H         4.26824997739722   -6.35186712109846   12.33410629295005
H         4.56494770612739   -7.11178895063505   13.91836601404884
C         0.83680970986961   -1.04829681534596   14.21639025160823
C         0.13661714188446   -0.19281482941498   16.47418229324836
H         0.37573880906520    0.74994793143204   16.97136481294906
H        -0.88861855979695   -0.18009618702062   16.09520984005854
C         0.34578699494911   -1.36198977749423   17.39650778357715
H         1.25825777489844   -1.33362749954719   17.97667483387686
C        -0.47626963035750   -2.39175588857195   17.45618633699777
H        -1.37454677483848   -2.43041941106513   16.86222859155367
H        -0.28525346421618   -3.23379895513030   18.09921501237232

