94
CSD_code = SOTYOQ | q = 0 | S = 0 | Stoichiometry = C50H40ClIrP2 | MND = 5
Ir        7.01649822592504    4.36351604533932    4.90982507153138
P         6.05622962379636    6.46013557921041    4.81789761575262
Cl        6.81974471957797    4.13583710117185    7.32685393551965
P         7.94964967767647    2.27542899697334    5.16387980472598
C         8.56143056026720    5.11745094961293    3.80115896687898
C         8.47825287101768    4.94958028704139    2.40420552243574
C         4.07888421236553    3.49046296548358    3.57260703778286
H         4.11714503527364    4.31602981510803    4.27242388961972
C         4.44831633448281    6.76645229101575    5.63352863062829
C         6.44819128115077    3.93936803919733    2.98928108592892
C         5.22035782990570   -0.37545629312122    7.73689267038445
H         4.55713590509372   -0.97659954222257    8.34166608345036
C        11.31699378279924    3.11455755181286    7.30695251592645
H        11.67501760002262    3.92557027574055    7.92414880300136
C         5.76124936688112    7.04715531093284    3.12007439555320
C         5.42683651050279    7.70577732742370    0.44081377642005
H         5.29531888191749    7.96305536081801   -0.59996601033517
C         6.92845506573413    1.17780962788138    6.19537754444364
C         8.63465689829571   -0.00976499924692    1.23403942091904
H         8.79979903274593   -0.51669748964967    0.29448794416162
C         2.69430262726243    6.06324391445638    7.12017637063710
H         2.27484505246062    5.32022369503766    7.78273031423156
C         2.86534936542593    1.69693731376566    2.54462273685930
H         1.96187287233426    1.11291595774071    2.44674415158955
C         9.60210213259748    2.15876769597632    5.91912108999164
C         4.36161738803427    7.20621706918871    1.17083883408320
H         3.39872112413030    7.07037772095188    0.70026380180728
C        10.65859442968110    6.25379407262020    3.50699233449560
H        11.50447164479131    6.76996654150422    3.93815084673124
C         3.78249223453517    7.97286797178713    5.43169036157035
H         4.20846769507572    8.71770516647382    4.77434662767615
C         8.40009793471778    8.51094808468174    7.42176247169685
H         8.92807745508366    8.27547274912110    8.33442458240569
C         6.56931005417004   -0.31202846950467    8.04195267028779
H         6.95863488459553   -0.86219608102111    8.88650955570535
C         9.18108354544828    1.74902268501995    2.76749197244187
H         9.76664564190125    2.61746995059673    3.03612691429479
C         7.01190630762416    7.81679097964304    5.58222398079366
C         3.90049075778282    5.81726205964188    6.48687475443904
H         4.42711958614330    4.89190695853650    6.67223983549721
C         9.49361101995448    5.42474624185501    1.58109948551772
H         9.42205157306796    5.28762778992447    0.51140319533983
C         7.42492343285317    0.46232201452938    7.27700856541640
H         8.47383761383404    0.52005891508847    7.53102887481882
C        10.58221679907310    6.07300300317944    2.13615876417693
H        11.37304392087519    6.44493865709302    1.50028441284804
C         5.21077497536116    3.19705783201701    2.80614823375160
C         3.97853748073675    1.39386793632072    1.77616808124601
H         3.94155335233684    0.57012420129520    1.07742897399227
C         2.03088803317396    7.25894650237532    6.90785898847385
H         1.08946480375723    7.45152039739166    7.40132920504578
C         6.83239194806871    7.53678298921547    2.37692957608932
H         7.79843865600138    7.65222304473028    2.84646263907779
C         9.65039038639265    5.77814570168512    4.33827385062427
H         9.73101460606659    5.94466359901689    5.40391292412573
C        10.07019154896938    3.19791069685003    6.71334042558068
H         9.44347273669488    4.06139036869211    6.87530719582909
C         7.69353523601390    7.52428837238637    6.75944106685404
H         7.65608439655523    6.51912466584037    7.15495542579428
C         8.20444455370571    1.29103875052147    3.64915843051157
C         7.03267845467468    9.11556903179459    5.08553828236880
H         6.50531970915682    9.36170001422648    4.17493374081580
C        12.10386485687961    1.99231173133083    7.11185678079265
H        13.07788225846590    1.92594820381196    7.57426660466242
C         4.52769503093900    6.87261401327069    2.50256629994716
H         3.69280994865340    6.47759222668192    3.06406075535639
C         7.66242995008839   -0.46751950922718    2.10600117316370
H         7.06827741592246   -1.33260656121382    1.84897946859775
C         7.74297755185333   10.09881925132240    5.75082044080676
H         7.75936987912626   11.10503094916192    5.35715398120693
C         7.44158327422065    0.18228619492748    3.30903680454204
H         6.67700983297429   -0.17988113862787    3.98178290274157
C         2.91834541734705    2.75376174385682    3.43959359048085
H         2.05304929854374    2.99983047189990    4.03932307101572
C         6.66188084793085    7.86977298117750    1.04671607852154
H         7.49786982277825    8.25159465224518    0.47937861668494
C         8.42957265574562    9.79984083630955    6.91584636223280
H         8.98383742160757   10.57204479596130    7.42913592650486
C         9.39517046677615    1.10112284247363    1.56761162315175
H        10.15309496393031    1.46284672557616    0.88851141785512
C         7.27869934110269    4.27308206765978    1.98522236016585
H         7.06702229195408    4.10007945206192    0.93870072714610
C        10.39504983068224    1.02920418197113    5.72881817692993
H        10.03411670200008    0.21482598416206    5.11509646363575
C        11.63979737787301    0.94990146040302    6.32469631961603
H        12.25047528839094    0.07093543404746    6.17628365688575
C         5.13764208699446    2.13434830734128    1.90043383128501
H         6.00743078176834    1.88961250649569    1.30954139178951
C         4.71948819579947    0.34421897803684    6.66334088110731
H         3.66566381752366    0.30752618592069    6.42680890976012
C         5.56814944373936    1.12123405965836    5.89903826725777
H         5.17913220317943    1.69883266516873    5.06969189709865
C         2.57877121692310    8.21419463441960    6.06508212699434
H         2.06520914170872    9.15100770896851    5.90379984179480

