33
CSD_code = SOTZUX | q = 0 | S = 0 | Stoichiometry = C12H12N4O4Pd | MND = 4
Pd        2.62664879757429    7.07388674421203    9.23584866613446
O         0.95701335110697    7.03996915479419   10.39980805872406
O         0.87706624997055    5.17866543019249    9.22452796664798
O         1.73966864324040    8.61808961507540    8.24470975783121
O         1.71537992887307    6.93082302963412    6.82936410086783
N         3.50887331100439    5.57571318626926   10.13251696645918
N         4.23026510953574    7.03571206534520    8.12163314380549
N         5.01725525205473    3.84396660034482    9.55624792609818
N         5.79847636508377    5.42605594283666    7.37586284176667
C         3.12549000499249    4.88900093629300   11.20833411843505
C         3.66939583210031    3.64973483053249   11.49663385867908
C         4.62355448349191    3.15582243522130   10.60948197143940
C         4.45773010246591    5.02063641203909    9.34485475397025
C         4.86477715084750    5.84445917795243    8.20965310127335
C         6.13876532667049    6.22315318601566    6.38252496514243
C         5.56320575317356    7.48146949146040    6.21860132786957
C         4.58972991879091    7.85041047895949    7.13003808362341
C         0.34086985310445    6.01180786901500    9.96461990198435
C        -1.08981976532360    5.82576777282967   10.43965452624520
C         1.33684771174916    8.05659308257526    7.17292636749523
C         0.40995363201509    8.87373038422349    6.28826026237658
H         2.37121270570017    5.34917427671296   11.83646345759730
H         3.35649241897326    3.09173301749140   12.36319927664593
H         5.08801114035016    2.18883586760092   10.74274996520960
H         6.89243009060648    5.84219466243791    5.70773834231031
H         5.85074886857747    8.13730185466271    5.41397483002095
H         4.08156295840840    8.80658564354502    7.07787909699260
H        -1.28032363911636    6.44820649306136   11.30873211544666
H        -1.75814893153490    6.12127153040548    9.63408374099304
H        -1.26788872098518    4.77796987599001   10.66472884134755
H         1.00001694524425    9.60017022785524    5.73280084399610
H        -0.30588376338132    9.40978351382288    6.90452614689598
H        -0.09957708536438    8.21710521058955    5.59022067567751

