46
CSD_code = SOVBIP | q = 0 | S = 0 | Stoichiometry = C16H27NiPSi | MND = 7
Ni        5.17655189622201   -0.42033732281854    0.92134778093634
P         6.73444407613144   -1.21666742639817   -0.33195990391467
Si        2.28204711193425    0.99308143006160    2.62718374268269
C         4.04312624792450    0.35258381730345    2.40368008619770
C         4.45238498886408   -0.96062224181532    2.79774509459916
H         3.77972827598733   -1.77721781348537    3.01530337481906
C         5.84638037910578   -1.01605059806809    2.86843605929148
H         6.42643259899762   -1.85803223349287    3.22215612468231
C         6.35850260700782    0.33293459977675    2.76104565919636
C         7.63153860082133    0.87203583050455    2.93609951458661
H         8.47490812918197    0.23261881763953    3.16585243411795
C         7.79200343455846    2.23950471638887    2.83895583121686
H         8.77056226727627    2.67519359199764    2.98552071495402
C         6.70786851110358    3.07293323075626    2.56582779587701
H         6.86742718529860    4.14033492975921    2.50673877550004
C         5.43895836725984    2.56079328777347    2.38112578885916
H         4.60496700851237    3.21771029624102    2.18096371716887
C         5.24628951427727    1.18392452952185    2.47491843600122
C         4.02619741079630    0.24831731825537   -0.52348545552090
H         3.04204265464885   -0.22863202103112   -0.42898205223189
H         4.40504653233944    0.04527109293976   -1.53018710452904
H         3.90818494766123    1.33261602016397   -0.42022961403337
C         2.24631894448571    1.81570375896053    4.35409502230617
H         1.25234569140510    2.18336949704159    4.58908879181275
H         2.93109617725528    2.65652657793577    4.40663527789012
H         2.53165635800791    1.11550527568834    5.13370986693679
C         1.69691070402689    2.27130965879103    1.33133299019942
H         1.46884846386143    1.80466039773648    0.37855134006193
H         2.44168200081731    3.03932013242141    1.14968050390720
H         0.79476938540573    2.76756287400321    1.67779017484536
C         1.07181099443512   -0.48519398785279    2.60326217593058
H         1.20484816333482   -1.09569256588973    1.71522908457453
H         0.04216856058079   -0.14177914245459    2.61570175964755
H         1.21102617368177   -1.12648216841208    3.46819235490788
C         8.11919759067026   -2.12748485636561    0.46271415441524
H         7.73921784741459   -3.03382151886004    0.93066427994810
H         8.56815744440628   -1.49922948078113    1.22899736256865
H         8.87410419142615   -2.39172121172159   -0.27693196244513
C         7.67208102521180    0.08820900686515   -1.21683236584084
H         8.47880100075795   -0.34697027934977   -1.80479270209534
H         8.08249426855992    0.78168682069513   -0.48509135384574
H         6.99604731107015    0.63865349439379   -1.86676183013025
C         6.34646519726845   -2.36692004480055   -1.70830750476540
H         5.62019648712373   -1.90974678195442   -2.37523016657288
H         5.91282451067559   -3.27825741185718   -1.30230951062470
H         7.25073876221115   -2.61010189620815   -2.26414454408486

