48
CSD_code = SOVDIS | q = 0 | S = 0 | Stoichiometry = C25H15F2N3O2Pt | MND = 4
Pt        5.52216379468319   13.83896519806416    3.96991342860587
F         5.34773498216168    8.61369989193015    5.48783649076703
F         9.53860215652479   10.57515682032874    4.83330706419387
O         4.96938092679832   15.86371138223236    3.71489508577211
O        -0.50869345730835   13.76801655300098    2.77223664907067
N         3.57592908599773   13.57224879529211    3.53387263011013
N         0.88519928078919   16.04786163546481    3.22604859802514
N         7.43077466396135   14.22696639427056    4.17743361593236
C         2.88924891274250   12.47733117772611    3.25276955823743
H         3.43515857605762   11.54681995887925    3.21120027799190
C         1.52193760835601   12.47558941994073    2.99479876456556
H         1.03256128425988   11.54148268066473    2.76544255132172
C         0.80071038517016   13.65713459872078    3.02228224286631
C         1.61058884073976   17.13370978490839    3.39533008932036
H         1.05083327186365   18.06025467188175    3.37168539808148
C         2.98573346517303   17.16272140742907    3.56896593996572
H         3.51438097117058   18.09825939449680    3.66261227567600
C         3.69684648466660   15.95701433204448    3.60923692521000
C         2.91009316168439   14.75946108208759    3.47964906646064
C         1.52118272462922   14.86921199082030    3.24842794792311
C        -1.34687722757617   12.67609389798317    2.82833425652473
C        -1.33514257991553   11.78463861580023    3.89512912512607
H        -0.62323202341957   11.91425173788976    4.69718819766544
C        -2.25269964140229   10.75005443969028    3.92916619878955
H        -2.24340921718476   10.05978110666327    4.75929489732981
C        -3.18120365853883   10.60218446087420    2.91253322505712
H        -3.89279529919356    9.79133865248452    2.94477826885035
C        -3.20013320600518   11.50243804053400    1.86011761521120
H        -3.92808344040517   11.39690348897535    1.06994825247819
C        -2.28692830794054   12.53946776959971    1.81376500888909
H        -2.28830413224164   13.25320660326557    1.00508628282487
C         7.91493199405580   15.45914259215265    4.04546110791481
H         7.18647867896726   16.25632049396387    3.97629858872409
C         9.27245776260080   15.72024468480940    3.99806022763982
H         9.62479970018155   16.73375120146278    3.89554504832853
C        10.15676533547940   14.65457601880051    4.07701458877831
H        11.22262066790432   14.81769220218708    4.03020538803083
C         9.65578476468855   13.37278761784126    4.21877040413583
H        10.33072365025276   12.53687202263994    4.27897090948461
C         8.27775014865548   13.17410433873562    4.27644440976473
C         7.58499941574527   11.90753518062727    4.48897691429862
C         6.16583440406393   11.99712869999336    4.44741924334855
C         5.44127235941496   10.86847563207970    4.81929901129639
H         4.36496469898256   10.88462784286917    4.89024279047011
C         6.08596848233107    9.68826694625234    5.14285214529489
C         7.46234369996800    9.56557008990121    5.12230729834609
H         7.95177793477539    8.63725216846246    5.36475028316847
C         8.19196791562137   10.69447628327337    4.80709571213224

