57
CSD_code = SOVDEO | q = 0 | S = 0 | Stoichiometry = C31H18F2N4OPt | MND = 4
Pt       17.72876404351504    2.90082911308652    1.82125929294795
F        21.03775476149436    3.21804991640446    5.87681922651492
F        22.91287206164555    1.25476757316785    2.07359822556196
O        15.88477416518076    3.58447080419912    1.04153806297984
N        17.59227084535536    3.94858482338723    3.47105653380655
N        17.61912580228935    1.70939708766955    0.20584139182798
N        15.22695589115360    1.73508553769157   -2.57194948456518
N        16.83638123010793   -0.47148121702099   -3.30546661138474
C        16.51561034503884    4.67750556652251    3.75257569232180
H        15.79955971648459    4.80602967251824    2.95170852123741
C        16.31092979972073    5.24552894263482    4.99702037168636
H        15.42725237122721    5.83365052090288    5.18410150729453
C        17.25795463038847    5.03264764425100    5.98767275275688
H        17.12532111718614    5.44752319339447    6.97502649511093
C        18.38122153542264    4.27960859825041    5.69544257201880
H        19.12257608873804    4.10470946075629    6.45538773712132
C        18.53958242602131    3.74642855170632    4.41795987937599
C        19.68574479541707    2.99268432516116    3.92035002554518
C        20.88679726380344    2.80108549811894    4.59988353104561
C        21.97861634808304    2.19563523310604    4.01036046433365
H        22.89799649679917    2.05717822436401    4.55407260105147
C        21.84960412797669    1.80787842738904    2.69033391235319
C        20.67047167511920    1.96260003223262    1.98338164690371
H        20.66721566291391    1.65986752708326    0.94793364165566
C        19.54703831215930    2.52024319641021    2.58602819600695
C        18.35994008316503    0.67179721585850   -0.15499338402107
H        19.16605687110654    0.38582187935855    0.50330628124259
C        18.12288641199981   -0.06652299428942   -1.30903622164813
H        18.75444204496771   -0.91219326653911   -1.53149064833845
C        17.07042298965058    0.25166947486402   -2.15151839281207
C        16.23893656592718    1.34953358389413   -1.78339543393636
C        14.48211446766259    2.74347815205624   -2.16856735453326
H        13.68794342744942    3.01862803759814   -2.85113366520683
C        14.63114381895774    3.42051126803190   -0.96888746689442
H        13.95080189661532    4.20810083466885   -0.68618317200382
C        15.68021892928709    3.06747033468296   -0.11054309972756
C        16.55070016292297    2.01937259378479   -0.57668685721698
C        17.80083251901403   -0.82115421247185   -4.23905711904931
C        19.14622210157927   -0.48956959130135   -4.28971430835204
H        19.60844268770733    0.11459518732741   -3.52383153767290
C        19.88384046230073   -0.94145105582518   -5.36892941558530
H        20.93441960666193   -0.69864175131640   -5.42722923280627
C        19.30095464144587   -1.69623570646971   -6.38265291241711
H        19.91053692625588   -2.03331896193917   -7.20761307976664
C        17.95461264420498   -2.00383230457111   -6.35236779738992
H        17.49631421163748   -2.57047758262022   -7.14852867980679
C        17.19559170583564   -1.56134177861413   -5.27823838785243
C        15.80269532384999   -1.67859297687902   -4.94135598409791
C        14.73444094897995   -2.32590161171269   -5.54700220920574
H        14.87161548920742   -2.85228037662353   -6.47945169073917
C        13.50240970865284   -2.28890282306593   -4.92499248291587
H        12.65614623579829   -2.78241037916915   -5.37938523864806
C        13.33818250882398   -1.63602066611093   -3.70641283223624
H        12.36832353798145   -1.64093653842081   -3.23143805251142
C        14.38889318390844   -0.98751782725537   -3.08496682689243
H        14.24719255199084   -0.49605077202393   -2.13676142308986
C        15.61823382120080   -0.98743363829682   -3.72447755936945

