67
CSD_code = SOVFEP | q = 1 | S = 0 | Stoichiometry = C22H33BCoF2N6O2(1+) | MND = 6
Co        3.56329834265133    9.67844069436218   11.04983181485901
O         1.96167514355603    9.92426618948775   13.37394956437209
O         0.83732363787774   10.21475738492606   11.17571228471527
N         3.16156637544043    9.70152376090369   12.84609383328642
N         1.94812240715894   10.27555629422971   10.44944711127771
N         4.04662460973835    9.86880410596417    9.23866464745836
N         5.24656266847490    9.06909902363821   11.67308505147081
N         2.64817634431546    7.77407499758481   10.85223768882076
N         0.95429691927902    6.44048686060425   11.40987771135406
B         0.89214157683969   10.65792691440822   12.61063455657226
F        -0.28242713071896   10.30912316904899   13.17281400913281
F         1.15460979347988   11.99779700772867   12.65183175234570
C         3.97083403630876    9.35520986511505   15.14140911587129
H         2.95064181360175    9.62560087437983   15.40221157555409
H         4.64863267866893   10.06952124927190   15.60672837837224
H         4.19067032503397    8.36440361532747   15.53605388183145
C         4.12490660061069    9.38594498823686   13.65944736761832
C         5.34561301393869    9.04622316241801   12.96469839384209
C         6.59306338738101    8.70202413301361   13.70314524789758
H         7.41811585728963    9.32553761511920   13.35982502255351
H         6.87033445200798    7.66321905662563   13.51967225990442
H         6.47004284865523    8.84083761810602   14.77111153788371
C         0.58310423636068   10.94049558673043    8.51726257382653
H        -0.22901963686914   10.88772226838391    9.23803657089264
H         0.36924123672845   10.27303951140746    7.68434780483345
H         0.64510063831488   11.96027966470745    8.13911887763360
C         1.85625776961047   10.55770604404771    9.18666253262016
C         3.12083050240499   10.39782092813637    8.50329942786898
C         3.28657010377526   10.79081405302435    7.07462374097168
H         4.19185070569854   11.38131303806841    6.94247551656542
H         2.43720880861651   11.37307685466708    6.73472657028216
H         3.36635094390814    9.90631414650304    6.44084856961606
C         5.36028214254778    9.60168739418785    8.70554353026162
H         5.98100159251681   10.49776236083316    8.82865768667811
H         5.30561213686453    9.37470323399883    7.63582666739924
C         6.01659279731440    8.42598670454926    9.42725577788671
H         6.91995991464668    8.14377240580585    8.88543955044127
H         5.33536065118091    7.57415736928269    9.42652637113458
C         6.39865498022871    8.75016058592068   10.86615389710487
H         6.92682591173447    7.88764714698428   11.28761868615824
H         7.08722049944460    9.60520884942413   10.87995374817701
C         4.14259908023012   11.57108505843716   11.32102322061359
H         4.32016765580223   12.08318094957914   10.37837229282992
H         5.04916274692181   11.62701879177257   11.91914440006035
H         3.36087621478949   12.11257241355332   11.84606275783512
C         1.87386034446522    7.31849577768997   11.82161609375932
H         1.94199244530095    7.59492389284689   12.85576077156167
C         1.13023681412716    6.28924222095625   10.05716239049280
C         0.46804845351548    5.50745815841652    9.12297434816528
H        -0.35468075403981    4.87451027493621    9.41568598910428
C         0.89234582894172    5.55296833341818    7.80927538902727
C         1.98716731438841    6.36989725345725    7.44728128490375
C         2.63847109975138    7.14694937064902    8.38611716414402
H         3.48035212773170    7.74504611756578    8.08538931639745
C         2.20681829731585    7.12776040817953    9.70934243022900
C        -0.05400902389720    5.80871520277510   12.21248318433621
H        -1.04233007179255    6.03447879400678   11.80988591031116
H         0.00325174717114    6.18649533432116   13.23091804561163
H         0.08756693707711    4.72626129738221   12.21673551934027
C         0.20083714980038    4.72382955999504    6.77534469888957
H        -0.18382855984730    5.35027940361689    5.97224309478951
H        -0.62815595022827    4.17488334404172    7.21228259315793
H         0.89240483943256    4.00890568492214    6.33179210897928
C         2.45291795300769    6.38959420198390    6.02445650186369
H         2.72254923084894    5.38732990725988    5.69629618561794
H         3.32114684145719    7.03281658378237    5.90598187188191
H         1.66249960111087    6.74645493728389    5.36561152874345

