25
CSD_code = SOVGEQ | q = -1 | S = 0 | Stoichiometry = C8H8NO7W(1-) | MND = 7
W         2.85579673554583    1.35112960663167    3.43039920333337
N         2.93592797004467   -0.57222146274436    2.07609216478108
O         3.90801238701963    1.93117815962157    1.96372328971103
O         2.52310433355167    2.13819689694568    1.74691780551455
O         1.01076169631154    0.78772402218474    3.50321872187021
O         1.83025944769291    0.06334296476735    4.41166102711766
O         3.02037505789724    2.63270473804027    4.53283828299179
O         4.50428876114335    0.24831545036315    3.99472350516892
O         1.65317045394135   -0.95749814990392    1.70173359613164
H         1.09326749155285   -0.38674354244693    2.32092806517961
C         5.46615351274304    0.00652405699957    3.14424775713133
C         6.78677647875711    0.38057973486113    3.47406786582265
H         6.92022007014029    0.92956727975317    4.39520435350351
C         7.85062403960632    0.09191006495080    2.65291232910801
H         8.84740425440060    0.40967131600220    2.92816332783998
C         7.64972203549649   -0.60457843553404    1.46682316609692
H         8.48310675004309   -0.82778413600549    0.81597222441151
C         6.37524054670151   -0.99895961163049    1.11946681113964
H         6.22868317125826   -1.51993475486368    0.18436029372548
C         5.26946785746084   -0.71802494844109    1.92543871413970
C         3.93647980396305   -1.14184534722268    1.51329525208498
C         3.76288679061239   -2.20609731703393    0.46514183266305
H         2.74955129907201   -2.59692794555573    0.52649724414462
H         4.47917195180757   -3.01158518627767    0.60825559185171
H         3.90414710323709   -1.77334345346090   -0.52448242546273

