55
CSD_code = SOVLUL | q = 1 | S = 0 | Stoichiometry = C25H17Br3CdN5O4(1+) | MND = 7
Cd        2.13583013513977    2.34927871345011    8.41983133984469
Br        3.97715218606665   -2.37511513211323    5.18634926672172
Br        9.10927476302158    1.47436603361867   10.19165822370361
Br       -1.31532982094596    3.87434752517122   13.06457304189947
C         3.42449821171351   -0.04862671713947    6.74652905861182
H         2.43526409129817   -0.09113414675605    6.30596316520412
C         4.40490084972615   -0.99839070999046    6.40949315669377
C         5.65668008228102   -0.91503976696872    6.97764728216151
H         6.42628542186976   -1.63396399389115    6.74030526229047
C         5.91897107759181    0.13194080383102    7.87722606814742
C         7.18285316498207    0.29112718297489    8.50669811256099
H         7.96570125835682   -0.41720708650905    8.28306179478076
C         7.40320309097745    1.31377194333186    9.37440020144937
C         6.38064722101173    2.26846981458170    9.68396489854782
C         6.55681002892587    3.34174301766380   10.57157054655896
H         7.50662336886351    3.47945885563397   11.06613603357880
C         5.51240635488323    4.20623014257679   10.79968141100824
H         5.62091415075688    5.03786565535793   11.47664818917932
C         4.30035330490484    3.99063444651306   10.13987408053644
H         3.45904545206576    4.65414345610379   10.29456000066998
C         5.11229654857298    2.13208802883851    9.06665972535479
C         4.87514826532342    1.04549890841046    8.15399030232337
C         0.45890924781905    3.62677360468210   10.85100013009957
H         1.04154242343216    2.98916075759267   11.50453342247208
C        -0.73276605221129    4.21194927546066   11.29651805665914
C        -1.46022369840155    5.01559217798642   10.44654519811364
H        -2.38950106058584    5.46556641224170   10.76254936617957
C        -0.97443075891910    5.23658183996762    9.14961731925010
C        -1.66069797404084    6.04732436083438    8.20014494976653
H        -2.58998742764050    6.50651985881841    8.49971660199353
C        -1.16580074504419    6.22555745950667    6.95274749058677
H        -1.69155794464528    6.83198584045791    6.23121264850939
C         0.05368318292746    5.60880731252823    6.54784632786620
C         0.58988468449447    5.75537336944581    5.25819138847459
H         0.07048279395276    6.36092199088198    4.53067514645733
C         1.76555037897944    5.11574623363408    4.94296006127399
H         2.20251866398441    5.20515428923743    3.96145658020934
C         2.38671232371872    4.32364481876408    5.91070423567766
H         3.30669083732136    3.79652845270777    5.68587409374475
C         0.75972662707958    4.79024860825870    7.45713092951031
C         0.23580482036852    4.60219245642945    8.78387049553046
C         3.11982279983501   -0.32317476843079   10.84372666944747
H         3.04961024298010   -1.12140729063291   10.09841155926541
H         2.79428884785333   -0.70873089603938   11.81319907818193
H         4.15686782823014    0.00116022208817   10.92569713130676
N         3.66005692194016    0.92844173922928    7.58976830807094
N         4.10865782448339    2.99135538827720    9.30615232648756
N         1.90418404854883    4.16054600629402    7.12737533944985
N         0.92052728884557    3.81328269947183    9.63389330276971
N         0.03803231478829    1.87914169651828    7.63816691286598
O         2.34927370769659    0.80790850439156   10.46974037359541
H         1.42200934459150    0.52963050595666   10.43916315062532
O         0.87785881830416    1.71364690769323    6.75168530092573
O         0.25225186782850    1.35563088466154    8.74108067449987
O        -0.94991138585109    2.53215230631470    7.45062426818010

