48
CSD_code = SOVQUP | q = 1 | S = 0 | Stoichiometry = C18H24CrNO4(1+) | MND = 9
Cr        3.45673908269479    0.21250426238086    7.74789709963256
N         5.20928466277459   -1.83787562263761   11.80187608822938
H         4.48548052671586   -2.33081594981950   12.34163184023251
O         2.54494499433865    0.60927143927831   10.88061536298372
O         2.06228395636928   -2.25917772864934    8.61313813489904
O         5.47931800897017   -1.94980699260087    7.61755440692714
O         2.57767519766010   -0.66537716333704    5.03593076546625
C         3.37643360045963   -0.09096779058669   11.77730056454208
H         3.77673137564725    0.60882116015364   12.52601544147761
H         2.71561821169629   -0.80484901460968   12.28011532471379
C         4.50313812984241   -0.79113689782735   11.00645756883500
H         4.03058330095426   -1.31059077608208   10.16239303934665
C         5.39797500445165    0.30446175504088   10.42770971717785
H         6.22669968427564   -0.11059201437131    9.85076860912794
H         5.81382663656974    0.94034324735556   11.21549097660331
C         4.50398929702197    1.10516365944554    9.50603425560634
C         5.00872278604493    1.74457370762388    8.35040861151155
H         6.08025371964346    1.77220339631228    8.19216575368105
C         4.15113254900693    2.38252864465518    7.46071434288419
H         4.54918940421564    2.90967547916108    6.60446061411655
C         2.76194881047105    2.38953091215709    7.71004130485409
H         2.09952596200203    2.92507943633753    7.04254997941577
C         2.25462124457136    1.81568077080911    8.86961944725893
H         1.20730024915969    1.87765531178822    9.12958936165869
C         3.12544850770910    1.16010285116666    9.76805425169633
C         6.18273832447780   -1.30346831744083   12.79267794569424
H         5.78451088486422   -0.37521029321858   13.20552419254469
H         7.11854737375263   -1.08378593939317   12.27618082600041
C         6.42365932060256   -2.27628518374495   13.94454656713456
H         5.47521547848293   -2.49719591621269   14.44024670330836
H         6.84150256350650   -3.21530053167860   13.58011644789098
C         7.38851012427127   -1.66831217159182   14.95779995386224
H         7.55384639793793   -2.36268413852868   15.77540805968999
H         6.98789667517217   -0.74657741968137   15.37127194685178
H         8.34821124157921   -1.45293521276689   14.49600942173918
C         5.80743856694322   -2.86822334421529   10.89456771310162
H         6.20669335100356   -2.37276791131808   10.00875008109411
H         6.63209744903831   -3.35330629012724   11.41728010028469
C         4.78858581757202   -3.92389165497696   10.47662672732966
H         4.44675695246505   -4.47531131884713   11.35615969108602
H         3.92156222354511   -3.46455556683395    9.99986685557460
C         5.42176189691309   -4.89122364928354    9.48117576882458
H         4.70356795943738   -5.65502097606932    9.20195078078711
H         5.72061891697748   -4.36190289003404    8.58116573801842
H         6.29292941315175   -5.37914778325789    9.91021894116514
C         2.52771438137282   -1.26463587262155    8.24366838855732
C         4.71007017360735   -1.08090745317093    7.56415700098853
C         2.91009961005822   -0.27515624811686    6.05979728560695

