38
CSD_code = SOVQAY | q = 0 | S = 0 | Stoichiometry = C10H15CuN6O6 | MND = 6
Cu        2.44998789608353    7.03746172987056    1.85501373093720
O         0.07094789892984    7.44199582337202    2.56028363801689
H         0.24363056603272    7.35114542994228    3.50390408860619
H        -0.22114321239603    6.57834626458365    2.25008094371079
O         4.69746021085872    6.31767020101581    0.97130215096062
H         4.41076364597754    5.51741762534376    0.51951845801483
H         4.92220262665616    6.96699841034317    0.29926970353955
O         3.12326338153735    8.56589776547897    2.40869017399269
O         3.95920565918830    9.61871462951183    4.15341074397470
O         1.96088252546676    5.39260494773957    1.44694199798165
O         1.87804884630172    3.30833516302907    2.16189695233510
N         0.77850125141058   11.12480394297571   -0.64120655031195
N         0.51212543944026    9.63670172906255   -2.43219295767193
N         1.76413004792852   10.58604043830024    1.35513435015276
H         2.29341226563611    9.92233863179531    1.93889735698079
H         1.64069168272920   11.54956706620778    1.61872139858205
N         1.95172525111427    7.67601322486994    0.10731454408934
N         1.26174845381296    7.36804830396813   -2.01430134573129
N         2.71673797704964    6.41087327929202    3.57247736253393
C         0.39253804647280   10.83558178397347   -1.84033348095797
H        -0.05876072281595   11.62756115591075   -2.42261299879761
C         0.09764749487319    9.36859812565116   -3.78983443898982
H        -0.92640493671241    9.70664706089906   -3.94549887803810
H         0.16317162321288    8.29392093284603   -3.94779020455883
H         0.75521924048505    9.87928947271525   -4.49499502637466
C         1.05786613074222    8.64804870333410   -1.67212996601946
C         1.48410187243755    8.88379448994636   -0.34507496088706
C         1.35859710261568   10.19610298737546    0.16585567821770
C         1.78251535960039    6.83249241727880   -0.92145508517936
H         2.02837697107189    5.79194430250406   -0.85041151583923
C         3.62417985545754    8.59235912308199    3.61364439743146
C         3.73510116285394    7.20195492902146    4.21702339844315
H         4.75457651156950    6.83452382937480    4.01475900329781
H         3.57601251657927    7.21884388756835    5.30082848600417
C         2.19623300631422    4.46202939694412    2.32331285347462
C         2.94589380802920    4.98715816314669    3.54566935008152
H         2.58185237145521    4.52641972853340    4.47063917563207
H         4.00866017199999    4.72645490319237    3.41864747236704

