145
CSD_code = SOVTUV | q = 0 | S = 0 | Stoichiometry = C56H84O4Ti | MND = 4
Ti        6.15595642752439    6.15599497840773    8.87883024074775
O         7.22596139892092    7.05685905562448    9.91294040663719
C         7.59227874801684    8.33558045850195    9.78395519989566
C         7.74413765060349    9.19971001179828   10.88926558502857
C         8.34709223077715   11.01296327338531    9.35385583844590
C         8.21907686065776   10.13679867780642    8.28536218114603
H         8.40292438885302   10.45882691213536    7.27339982374296
C         8.11204868430873   10.51055367929424   10.63157612059251
H         8.22343359602890   11.18272234945602   11.46512276920272
C         7.85387764446179    8.82229390464019    8.50134904578108
H         7.77184720161381    8.11979350378068    7.67230798184122
C         8.49684758526170    7.52996253695086   12.57044755747230
H         8.37599336856938    6.74177199827662   11.83112929079289
H         8.32623055234304    7.10975591369666   13.55984205875942
H         9.52122284925026    7.89444907572037   12.51956247029640
C         7.73553036320689    9.74981171793980   13.37887063339602
H         8.75444482319289   10.12918156605426   13.35392065365808
H         7.56691882293033    9.31004392689384   14.36008376926287
H         7.04088219892350   10.57826378160566   13.25980313387484
C         8.73650527934340   12.47496301877859    9.19073945641082
C         7.51470851047560    8.68025145507430   12.30405233634666
C        10.04686906749809   12.73680388889579    9.94661485283780
H         9.93640288494610   12.54332409637626   11.00982089229017
H        10.35376052357724   13.77297154407264    9.81926487346074
H        10.83540446989377   12.09266143637777    9.56352507543312
C         7.62076225744445   13.36067756527048    9.76323471290829
H         6.68274558525525   13.15910502881070    9.25046986197653
H         7.86950719434225   14.41164027173195    9.63020204443099
H         7.47446384264310   13.17818594227654   10.82402602197405
C         8.94661017363836   12.86477243165153    7.72504747094788
H         9.75298031088165   12.28749126966025    7.27915754913067
H         9.21369940990784   13.91805200094727    7.66390048693931
H         8.03774644883819   12.71377881990875    7.14762498040671
C         6.06872253716882    8.17786196081116   12.42885849574316
H         5.37210063918292    8.99040411738088   12.22543204811973
H         5.88510155842858    7.80870585888117   13.43634329077885
H         5.88209600630815    7.36634593297954   11.72500650995345
O         5.08586445700713    5.25514708908937    9.91285787252065
C         4.71962487013251    3.97640229974779    9.78388700064914
C         4.56789600441203    3.11225744987990   10.88920188295213
C         3.96483634586002    1.29900497569714    9.35383289407869
C         4.09276650705034    2.17517272774962    8.28533234578334
H         3.90887872186151    1.85313544029264    7.27337902332401
C         4.19998597502026    1.80140957691333   10.63153436990935
H         4.08865315785141    1.12923920406895   11.46508861101554
C         4.45796044796544    3.48968410474828    8.50129730345016
H         4.53993363761930    4.19218777032004    7.67225205033896
C         3.81526926235815    4.78191680097825   12.57050335826441
H         3.93597956453092    5.57012911349109   11.83118213743313
H         3.98598171661636    5.20211865901894   13.55988301655231
H         2.79091197200441    4.41736254548352   12.51974117281836
C         4.57684999539241    2.56209698905238   13.37879634207625
H         3.55793568091460    2.18271662334689   13.35402391226429
H         4.74564506831593    3.00182915813302   14.35999416221839
H         5.27148566628260    1.73365848446620   13.25956195976087
C         3.57535014211667   -0.16297993533909    9.19075575654787
C         4.79745542851989    3.63170007448918   12.30397488202785
C         2.26500078956275   -0.42474171995347    9.94668764645852
H         2.37548884769017   -0.23117242981177   11.00987556350946
H         1.95808780781958   -1.46091423478158    9.81942775148723
H         1.47647036762352    0.21938210773462    9.56355871971978
C         4.69107411272855   -1.04872748807355    9.76323476753656
H         5.62910035817202   -0.84717474384469    9.25047795397873
H         4.44229509483564   -2.09967793512519    9.63017513260485
H         4.83737255833888   -0.86627262760688   10.82403272642122
C         3.36519129907873   -0.55281286978726    7.72507806630008
H         2.55885076556436    0.02451228690335    7.27919342595943
H         3.09802161572776   -1.60607385481888    7.66396832569454
H         4.27405129631887   -0.40189919482647    7.14762705579225
C         6.24341803155401    4.13419447735258   12.42862122408566
H         6.94007620047980    3.32171176721629   12.22507821140652
H         6.42713621400509    4.50332368991406   13.43609816018816
H         6.42989354077259    4.94575668010998   11.72478067006456
O         7.05686416186244    5.08588460580150    7.84487564971943
C         8.33565964170163    4.71973987494743    7.97365296341772
C         9.19957094899221    4.56775971133448    6.86818764239824
C        11.01322527910030    3.96530231677185    8.40332157268709
C        10.13728213676055    4.09345520920179    9.47197967772097
H        10.45955132124767    3.90986060105812   10.48391128911565
C        10.51051063828769    4.20004033161427    7.12566538813407
H        11.18250771913126    4.08855832300519    6.29199321074003
C         8.82269207092081    4.45846976367799    9.25620439788192
H         8.12037887334269    4.54062376073170   10.08538529905199
C         7.52948200953457    3.81466438547526    5.18750469238888
H         6.74143906183969    3.93562544696656    5.92696507167897
H         7.10906231039434    3.98507476851625    4.19816494227336
H         7.89401845574542    2.79031296651381    5.23850922951766
C         9.74913370524905    4.57589472927157    4.37845998133954
H        10.12855939815162    3.55700388362870    4.40353280602021
H         9.30913783287741    4.74428698766768    3.39731176040339
H        10.57757796326003    5.27060844688261    4.49719834655736
C        12.47529898925218    3.57606737547549    8.56619952118196
C         8.67979871666894    4.79688779974376    5.45346815994651
C        12.73711030479929    2.26558778862297    7.81051417824481
H        12.54338608327394    2.37582821632258    6.74732905990878
H        13.77333772775849    1.95882888384973    7.93769722528646
H        12.09313476482647    1.47705925508009    8.19389761017513
C        13.36077749222135    4.69179117605451    7.99330228636225
H        13.15922411278093    5.62988384216430    8.50593594850506
H        14.41179344273780    4.44317468209098    8.12615410401556
H        13.17804159470467    4.83787322634084    6.93252295808374
C        12.86544292264968    3.36628147280959   10.03184848257428
H        12.28832790196356    2.55994749140810   10.47801849979023
H        13.91875846382752    3.09929386154672   10.09281782511306
H        12.71449747234288    4.27524322292832   10.60912978118464
C         8.17734317178359    6.24283671708631    5.32850901284054
H         8.98993403337709    6.93951177511800    5.53155569467512
H         7.80789726467171    6.42624453368213    4.32109232529136
H         7.36602921813921    6.42960103996378    6.03255642349453
O         5.25513311822450    7.22608640663730    7.84476448568853
C         3.97634929470061    7.59226708683265    7.97354776677692
C         3.11243588027431    7.74425719095574    6.86808470265897
C         1.29879239031478    8.34672868459346    8.40322473856709
C         2.17474381427035    8.21859158518511    9.47187840623422
H         1.85248301731415    8.40220874168428   10.48380867570465
C         1.80150037526811    8.11198662342878    7.12556695344058
H         1.12950069339514    8.22347232553262    6.29189753610149
C         3.48933135343139    7.85356742421151    9.25609979501629
H         4.19165329959551    7.77142770644601   10.08527966750005
C         4.78252181701268    8.49736383086545    5.18740843070773
H         5.57057186599784    8.37637181648640    5.92685464464938
H         5.20292730532610    8.32697722622252    4.19805871671225
H         4.41799741065217    9.52171825056286    5.23844750869442
C         2.56286698121426    7.73616258382885    4.37835871359304
H         2.18345646194179    8.75505893311070    4.40344402593012
H         3.00285713187229    7.56777434829436    3.39720715679046
H         1.73441221446307    7.04146040043895    4.49709091610180
C        -0.16328276580555    8.73595804528537    8.56610456263150
C         3.63220215253270    7.51514044771505    5.45336088645975
C        -0.42509546799047   10.04644872477786    7.81043888123810
H        -0.23137571459706    9.93621870338346    6.74725187942967
H        -1.46132214117833   10.35320704400419    7.93762840916116
H         0.21888276101118   10.83497277537174    8.19382765510115
C        -1.04875715523239    7.62023935302950    7.99319005923683
H        -0.84720494463293    6.68213904145226    8.50581027565917
H        -2.09977372608440    7.86885335838524    8.12604156867197
H        -0.86601886906129    7.47417331289161    6.93240919312767
C        -0.55343266376574    8.94571982822315   10.03175504483928
H         0.02367024541607    9.75205602064754   10.47793668482115
H        -1.60675246237832    9.21269040704006   10.09272802876675
H        -0.40247245896490    8.03675225486902   10.60902308681435
C         4.13464126953278    6.06918822621259    5.32837550755686
H         3.32203260319259    5.37251502035008    5.53135807629783
H         4.50413245669272    5.88581315094834    4.32096956656792
H         4.94591963253553    5.88238762271487    6.03245359925077

