58
CSD_code = SOVVAC | q = 0 | S = 0 | Stoichiometry = C29H22CrO4P2 | MND = 6
Cr       10.72465933850181    4.40770043013515    6.28004151184060
P        11.28685727993457    2.10079262336814    6.22915409554146
P         8.95560774977583    3.23245625250275    5.21415038379449
O        13.07047613814470    5.57893310866130    7.73236113968381
O         9.63310380803400    7.19650384264544    6.35347742400873
O        11.91554161131492    5.20686565008066    3.63421093755690
O         9.44041214162029    3.82303781916846    8.94036120510613
C        12.19276281812930    5.08059363893137    7.16688385634456
C        10.01517064247795    6.10646631302018    6.30199441324723
C        11.47855407048430    4.84498859737892    4.63934049200791
C         9.92279858712208    4.01522598506527    7.90774126523264
C         9.58189493748456    1.54830576623693    5.72374304490589
H         9.02131080589961    1.23007376863877    6.61035094985866
H         9.53564108380218    0.78627113861967    4.94011417304341
C        11.64753420208595    1.11167786466353    7.72112109187858
C        11.09837957595886   -0.13661953934855    7.99140873085888
H        10.39789912057777   -0.58998008197553    7.30330718921701
C        11.44049705641171   -0.80091283475958    9.15567041944175
H        11.00925826899444   -1.76887725934790    9.36683701088366
C        12.32917393767392   -0.22847387199429   10.05085322225681
H        12.58931337940597   -0.75153118406271   10.95902825105049
C        12.87800002177214    1.01600634522884    9.78564767412700
H        13.56512588463050    1.46574849331131   10.48668819528775
C        12.53650085047672    1.68532900345484    8.62550436638240
H        12.94344353439038    2.66611152201027    8.41015533874474
C        12.39646226200612    1.25308200250791    5.04516704232314
C        13.43205291992726    2.00913252558041    4.50602807902445
H        13.53164253095421    3.04766998271863    4.79834718624061
C        14.31090469673554    1.43942907266144    3.60228592779780
H        15.11068876373986    2.03041308421155    3.18167657356043
C        14.15908585092210    0.11227033760501    3.23560565237446
H        14.84026229707775   -0.33355774792387    2.52614718466660
C        13.13546742243144   -0.64768883659195    3.78018624716818
H        13.02310772159950   -1.68426118424124    3.49713662930732
C        12.25687242286791   -0.08395696796225    4.68660969163454
H        11.46546670473843   -0.68315487769161    5.11509211491140
C         8.82461155543635    3.04284899446835    3.40744181920200
C         7.73144870591863    3.53462855826290    2.70082799231478
H         6.89718721257220    3.96760668833579    3.23616436235032
C         7.71439344050828    3.46534738747434    1.31931277847805
H         6.86122832778394    3.84193859894339    0.77433339437843
C         8.78915817287710    2.92217108521511    0.63492985006145
H         8.77243209730320    2.87101834996072   -0.44351016463882
C         9.89230261209907    2.45644357502583    1.33345279976623
H        10.73910236418680    2.04710708610876    0.80219981914561
C         9.91510577274270    2.52516230165323    2.71285236528422
H        10.78802298307180    2.18342676103887    3.25736616386957
C         7.20788589727492    3.16595227174197    5.72340545259546
C         6.38061712599911    2.10003023539269    5.37838403864405
H         6.76683956237037    1.29942331229521    4.76082263596258
C         5.07077820211296    2.07807695278146    5.81787794239961
H         4.42692836718184    1.25214297828734    5.55230499205306
C         4.58177586659459    3.11516727473319    6.59858442049203
H         3.55732007643207    3.09273183447084    6.93952949950768
C         5.40173995702432    4.17753795388515    6.94121169198494
H         5.01834147789589    4.98380743352543    7.54849098633144
C         6.71564238055054    4.20338613911414    6.50636147382678
H         7.37290740396074    5.02417344477872    6.76712697468421

