113
CSD_code = SOVVUX | q = 0 | S = 0 | Stoichiometry = C44H60O8Ti | MND = 4
Ti        2.40859357409637    7.70400977447330   10.67903890638486
O         8.40715400298253   11.37018502813004    9.32072117776426
O         1.97205156529848    7.72206504511333   12.36343985792407
O         2.81558071258928    6.05388508516696   10.26751784266410
O        -1.52926070557234    4.14553484916369    7.14228175403279
O         3.74236737578050    8.72966410071871   10.47440376485832
O        -2.77831857209957    8.81069251410238   14.90628537259578
C         7.27653712192979   10.64093491605742    9.57592894768429
O         7.12622723754069    3.08888783045098   11.96399935045449
O         1.08877861561042    8.26488251164587    9.67253327031905
C        -1.15292494624324    9.38324912340140   13.16814384696799
H        -1.70873698655128   10.23448445080313   12.80826103929849
C         0.53836333975527    7.09669998970664    7.62935761346458
C         4.06756623764692    3.99266858968929   10.21496379504804
C         4.86823541096465    9.38670096745215   10.20685736760467
C         0.81309280409007    7.96628910143247   12.98364728049381
C         1.35803288572681    8.06119020422028    6.77710640863802
C         4.74934221916623    5.87194714962567   11.58785102528783
H         4.55416456943485    6.88625289295274   11.94100792913492
C        -0.34717574763631    6.41290297970914    9.78590605607125
H        -0.42703441964208    6.60234481732547   10.85492376089539
C         3.85304562407298    5.31535650740451   10.67154574510650
C         4.30807224357525   12.96240729116990   11.55093116478657
H         4.51059454215725   13.50427754860395   10.63054532746040
H         5.17918043116538   13.02186132096832   12.19843118049395
H         3.47943806860470   13.45440247163738   12.05628051621522
C         3.08654313495697    3.33812303575373    9.25015616934763
C        -0.15048584990577    6.03089396504848    7.07704504678708
H        -0.11194211496992    5.83016282176928    6.02010958904008
C         3.93210697894607   11.50485070879472   11.26297248423997
C        -0.85222757426271    7.51287859869029   14.64289994136179
H        -1.25668225718535    6.94301747787892   15.46176592191138
C         0.35169810814170    7.16694861093090   14.05623877027316
C        -1.03532962259139    5.35959276083944    9.20748927156747
H        -1.63564258495810    4.71665262719664    9.83128633004328
C         1.71261639952200    3.25646694698526    9.92906511152343
H         1.77415472607233    2.65554245161041   10.83436338102758
H         0.99197643084125    2.79997919530144    9.25325652176704
H         1.35693837607773    4.25071209672084   10.18903308751906
C         2.67590756230763   11.50691334717285   10.37656719480639
H         1.88189238533184   12.07314004501315   10.86137357010673
H         2.31912807238427   10.48924606569287   10.19490943591435
H         2.89729347285710   11.97479355227536    9.41858431294160
C         5.04677137470661   10.74553562978942   10.55321960119854
C         5.17885979712722    3.32095939139689   10.69157724870767
H         5.39633399413365    2.31447678380023   10.37811610789048
C         6.25359525342977   11.33417701290800   10.22398779668291
H         6.45443838443825   12.36559634026794   10.45789946677272
C        -0.92460240112413    5.15699980885449    7.84061789438466
C         7.09327934765238    9.30745966676727    9.24337929320748
H         7.85921340562358    8.73549488693188    8.74450022917570
C         0.44648415219020    7.27763703617750    9.03007382161399
C        -1.61050434036773    8.60426289160718   14.21972020457747
C         5.85405169662815    5.17830473094978   12.05167388102502
H         6.51593353510934    5.65446682600229   12.75749285586124
C        -2.32216103512100    3.23101583486130    7.85573927922083
H        -1.74006067665967    2.69804759790458    8.61523048926357
H        -2.68839299406787    2.51835548553347    7.11806467499615
H        -3.17469071613896    3.72373149702530    8.33504002755293
C         2.84059978812188    7.98651153833816    7.18042583585425
H         3.25053844417441    7.01169860824329    6.92001358121600
H         2.96948868231795    8.14766978577660    8.25639097262066
H         3.40721028289867    8.74957696193951    6.64782611920787
C         0.82976076680968    9.48671778726796    6.99791361049502
H        -0.21773947497049    9.54558812139611    6.70870865887109
H         1.39646056104527   10.19454552739499    6.39602163180026
H         0.91771471665321    9.77105220165767    8.04392060413524
C         0.05029816586182    9.05850608009996   12.56646834475280
H         0.43005712809903    9.65444434630500   11.73944276471698
C         8.06259738719152    3.60508183058451   12.87515151174960
H         8.56199609944824    4.49605661174219   12.47964252314073
H         8.79888624337825    2.81603158650958   13.02154393144627
H         7.59846340131138    3.84827058050195   13.83692945951313
C         1.16102742594500    5.95993460038331   14.51449812751350
C         6.07631543577272    3.88860004472487   11.59528223489510
C         1.27224455737945    4.96772349873186   13.34647016470869
H         0.28227569852982    4.61859074686720   13.05609439444250
H         1.87035399012387    4.10720893101018   13.64091574442406
H         1.74745380812910    5.43482342183593   12.48281758555257
C         0.51796354103936    5.23123174256926   15.69860721294854
H         0.42627982038083    5.88811170882845   16.56006867792054
H         1.14490150993268    4.38822594405518   15.98234250352122
H        -0.46473112423566    4.84601787289161   15.43800777101803
C         1.26457333167175    7.74956311911305    5.27956951302644
H         1.66358146766407    6.76326848105423    5.05647509776028
H         1.84885996852505    8.48144017633452    4.72537771426023
H         0.23623809405781    7.80554079078756    4.93166107290939
C         2.97883769753246    4.18641011447887    7.97614068603551
H         2.61287710407684    5.18204861398923    8.21637463694313
H         2.28194761468270    3.72731292615353    7.27760255249584
H         3.95272487554906    4.26801647685968    7.49583151816619
C         3.50628721605509    1.92163674414220    8.84590127703441
H         4.47285904184071    1.92521022970168    8.34806652329246
H         2.77170765934534    1.51730086847415    8.15219499939793
H         3.55142958394499    1.26218135161296    9.70902811179344
C         9.47241705813853   10.73341498467696    8.66235931976274
H         9.17891500131489   10.38039579243374    7.66799588272967
H         9.86147185665696    9.89131826032418    9.24466551311609
H        10.25047058241844   11.48849307202374    8.55989334655352
C         2.56087721898321    6.42112994338240   14.94497943352471
H         3.07282431650371    6.91634404368995   14.12263913827566
H         3.15648386518763    5.56539732308039   15.25703551661850
H         2.48529629028256    7.11675460757363   15.77867097947347
C         5.89418211970359    8.69637852345253    9.56127025523354
H         5.72282565514963    7.65369679957634    9.31492147613259
C         3.62818460834947   10.82065213822949   12.60595686480491
H         4.52171171637526   10.81007084414084   13.22819961340399
H         3.29039558103262    9.79130240314587   12.46097909632999
H         2.84727547301613   11.36606189639189   13.13359554176297
C        -3.58495546165653    9.89669356881192   14.52784707623109
H        -3.92812491076991    9.80321912229155   13.49189247513128
H        -3.06093228623388   10.85067153858948   14.65051137097111
H        -4.44582082046885    9.87234237630999   15.19450011623785

