97
CSD_code = SOVVOR | q = 0 | S = 0 | Stoichiometry = C40H48F4O4Ti | MND = 4
Ti        7.64865231041015    7.64864789435281    0.00000059744907
O         6.28861297719541    7.19255202382632    0.96920772801662
C         5.84598962056296    8.68124456834848    2.72017023985722
H         6.91291822405499    8.68441366050001    2.92544750764610
C         4.00259236636163    7.83251982875808    1.36863770283469
F         2.75951615773624   10.10242316012031    3.91859196048708
C         5.38552945211849    7.89099399737072    1.65962462302119
C         3.14983742463709    8.59412409021510    2.15497480291077
H         2.08684379453951    8.59884260320290    1.98508292779166
C         4.98146872508132    9.43321742514043    3.49041891286753
H         5.33400979148046   10.04404433399462    4.30603740597511
C         3.48715895447956    6.99388800863661    0.20460906046871
C         3.63670909506465    9.37486474855607    3.18700147421306
C         1.95699555331878    6.97571988137513    0.12639806364883
H         1.52341499138631    6.57107183893966    1.03764555542648
H         1.65065900068474    6.34150177241116   -0.70242747770654
H         1.55588499636957    7.97041833710548   -0.05070938026606
C         4.02780448517249    7.59805686617826   -1.10091129339607
H         3.62474329064870    8.59950280693774   -1.24499306452004
H         3.73166447228394    6.97948313493303   -1.94608697197473
H         5.12035299096788    7.65789249006226   -1.07806116972337
C         3.96779827972493    5.54172809401430    0.34289903971071
H         5.05419797729214    5.48451980488036    0.30989555150920
H         3.57147505853841    4.94083367693886   -0.47327579917858
H         3.62121955023370    5.11993220742287    1.28442913425969
O         7.19255583269591    9.00868645380925   -0.96920769240552
C         8.68124604463733    9.45131108365731   -2.72017198050118
H         8.68441673178550    8.38438238158840   -2.92544874964042
C         7.83251978453854   11.29470773108463   -1.36863940774228
F        10.10241755398753   12.53778628374557   -3.91859749957917
C         7.89099589464275    9.91177053267002   -1.65962566317833
C         8.59412136114803   12.14746353877472   -2.15497819229015
H         8.59883819394170   13.21045729508233   -1.98508707392876
C         9.43321624946049   10.31583284376429   -3.49042226978672
H        10.04404286916246    9.96329236275385   -4.30604123884881
C         6.99388772217415   11.81014062577743   -0.20461075612104
C         9.37486113670343   11.66059262345455   -3.18700595747054
C         6.97571806110013   13.34030404152471   -0.12640012657748
H         6.57106823365991   13.77388368333755   -1.03764722371289
H         6.34150059603071   13.64663997373458    0.70242612754111
H         7.97041624253468   13.74141601296759    0.05070584793000
C         7.59805889585430   11.26949619148671    1.10090894618118
H         8.59950449055594   11.67255857099241    1.24499004685848
H         6.97948535869237   11.56563602968406    1.94608470984145
H         7.65789542948084   10.17694770757496    1.07805951918567
C         5.54172839718272   11.32949903368472   -0.34289951551220
H         5.48452171039758   10.24309921015849   -0.30989631765847
H         4.94083443230710   11.72582110840148    0.47327619438940
H         5.11993095971799   11.67607759893485   -1.28442898758117
O         9.00868813125672    8.10474549648383    0.96921254794459
C         9.45131333581019    6.61605280774038    2.72017464057119
H         8.38438467647053    6.61288168509676    2.92545156324686
C        11.29470932091083    7.46477881884019    1.36864101632334
F        12.53778857326242    5.19487746570609    3.91859559594344
C         9.91177239158950    7.40630370350322    1.65962867793298
C        12.14746523590938    6.70317550652656    2.15497795466648
H        13.21045898849001    6.69845936911821    1.98508692110616
C        10.31583519872958    5.86408071081680    3.49042297039682
H         9.96329491828222    5.25325279675409    4.30604103488160
C        11.81014191989742    8.30341257888496    0.20461343580641
C        11.66059466113416    5.92243451021440    3.18700494898479
C        13.34030531799743    8.32158151694929    0.12640175004488
H        13.77388571477984    8.72623030329780    1.03764894319443
H        13.64664098894585    8.95579961535992   -0.70242410455628
H        13.74141677855219    7.32688336521651   -0.05070548708840
C        11.26949613294602    7.69924358514020   -1.10090666169786
H        11.67255761300509    6.69779780447238   -1.24498877461386
H        11.56563629319908    8.31781761079803   -1.94608199044875
H        10.17694754235994    7.63940782163586   -1.07805690250077
C        11.32950105921843    9.75557202457683    0.34290362420360
H        10.24310133145729    9.81277966093312    0.30989893221981
H        11.72582499219468   10.35646762446950   -0.47327001559194
H        11.67607831580982   10.17736703102067    1.28443458364438
O         8.10474887575602    6.28861147535570   -0.96921056231932
C         6.61605543103044    5.84598774853050   -2.72017217073314
H         6.61288642104175    6.91291627013706   -2.92544977440835
C         7.46478069679950    4.00259071858334   -1.36863976439163
F         5.19487643905004    2.75951410628383   -3.91859297936818
C         7.40630638383670    5.38552776891599   -1.65962673088125
C         6.70317617201103    3.14983563796351   -2.15497647271104
H         6.69845764156050    2.08684205726733   -1.98508438348414
C         5.86408237537851    4.98146672203189   -3.49042049574843
H         5.25325517945512    5.33400763678374   -4.30603881555936
C         8.30341309433700    3.48715738025778   -0.20461148459937
C         5.92243518666704    3.63670712914377   -3.18700293221981
C         8.32158132139771    1.95699400806382   -0.12639988132684
H         8.72622937731528    1.52341364855456   -1.03764740911526
H         8.95579945635971    1.65065741546354    0.70242565014177
H         7.32688286111508    1.55588338520411    0.05070743473814
C         7.69924473563747    4.02780281829194    1.10090909351461
H         6.69779846115026    3.62474238670539    1.24499068458013
H         8.31781816185551    3.73166221210773    1.94608480839166
H         7.63940991484777    5.12035144349141    1.07805916896031
C         9.75557303999275    3.96779665799350   -0.34290141163528
H         9.81278156318380    5.05419628249953   -0.30989589855955
H        10.35646832109437    3.57147165956506    0.47327191626452
H        10.17736773417202    3.62121984441967   -1.28443266490089

