58
CSD_code = SOVVEH | q = 0 | S = 0 | Stoichiometry = C23H30I2O2Ti | MND = 4
I         0.64790888334325    3.10453053809455    0.61935357147733
I        -0.62872378017829    5.28193221059318    3.93368276083136
Ti        1.57367736734437    4.55983993645075    2.64229594049981
O         2.45303005529655    5.84662842072132    2.02812062576832
O         2.59091852819791    3.61505137510294    3.57041919394909
C         6.17687027513287    7.58984080442746    1.74370360855099
C         3.82047251670434    3.30221878086733    3.98302159356331
C         3.65134886835488    6.43078410099507    1.95464630549244
C         4.89287382477094    3.49936051445682    3.09578716982220
C         6.16924288226465    3.13864978078059    3.49688578726168
H         6.99360415950077    3.27865681923948    2.81286956796237
C         4.03395652969726    2.77950966949617    5.27551602427763
C         6.40182368970300    2.59510686764079    4.74856573477732
C         2.86482863905253    2.67300414287547    6.24955644160499
C         2.34820112794891    4.09484691631732    6.53243691837111
H         3.10185051092634    4.66345451541401    7.07506694358345
H         1.44319707408303    4.05346932898802    7.13515998113187
H         2.12129204752050    4.63551174311398    5.60754539335390
C         6.03220056961945    6.21487560536912    1.68525435132423
H         6.90308126019050    5.58984545285736    1.55202296548697
C         4.67075448801309    4.10815075644982    1.72764469461261
H         5.43498426383572    3.72621803220442    1.04699342658651
H         3.68459835492785    3.81387065233150    1.33193476655408
C         2.54336371224488    8.68661127890301    2.33477845940643
C         1.74462010749202    1.79785238076468    5.66163974631241
H         1.29934249567291    2.23591457033574    4.76346784707135
H         0.95225941328067    1.67340455184856    6.39694169967008
H         2.13532277241491    0.81461257646125    5.40473231129244
C         3.77452197383257    7.83390718812375    2.04310571911935
C         4.78571791836728    5.61730251667280    1.78699586336659
C         7.77742747354939    2.17924462950855    5.17214915027146
H         8.51710520231719    2.46446375444278    4.42899082140537
H         7.81935228177736    1.09849278178421    5.30390739448981
H         8.04054231851498    2.63981492824970    6.12288909181598
C         7.52316960226013    8.23695403180057    1.62778039766881
H         7.78931674655221    8.72437825487897    2.56527783559766
H         7.51469335273240    8.99762432559791    0.84900458381479
H         8.28902491258726    7.50335575695834    1.39114023798315
C         1.43858098673714    8.43652628181397    1.29400664387906
H         1.82643551138146    8.60322665038640    0.29036781057888
H         0.61303714845725    9.12486120659848    1.46351660891717
H         1.03814455682054    7.42013123792746    1.34400296620603
C         5.32982199701524    2.43426708514553    5.61973023907818
H         5.53434149721072    2.02195705524510    6.59388277469009
C         2.04895106175354    8.32498388705146    3.74664766485544
H         1.93242382242458    7.24245507383006    3.86690559425957
H         1.08972943798044    8.79904740645392    3.94490525545656
H         2.76622094933053    8.66647815349220    4.49134567742885
C         5.04387261537675    8.37460624190217    1.92839917128990
H         5.17873752466235    9.44214262434720    1.98229201095314
C         3.27440293405121    2.04990023945882    7.58821061039026
H         3.64169276257805    1.03564116074929    7.45125746628450
H         2.40661301991001    2.00923163543988    8.24275320452955
H         4.03778144728244    2.64407287771830    8.08451545274889
C         2.85211070486870   10.18750515655624    2.31463140244269
H         3.58660497222479   10.45269062109742    3.07100336131006
H         1.94093532861791   10.74154157810753    2.52905887942087
H         3.21488930147473   10.49814333555709    1.33768227913881

