59
CSD_code = SOVVIL | q = 0 | S = 0 | Stoichiometry = C19H35CrN3O | MND = 4
Cr        2.79751869246924    2.77541595209296   16.44208246217719
O         1.70038471127895    3.83543485315628   15.56121286939483
N         2.34680136723100    1.05414370161886   16.19198283723297
N         2.66753848075233    2.94466198135401   18.03957549942856
N         4.50894594537141    3.22872829391171   16.13424264547598
C         0.78078208586702    4.77937502474700   15.68213051752670
C         1.87647858851046    0.06398972928128   17.14347831158542
H         1.60105891348949   -0.85812926111643   16.61285814324296
C         4.79296041845503    3.38464364397791   14.73234128889127
H         3.90295729255840    3.06527230428883   14.17412472699500
C         2.29629505695476    0.67647923539517   14.80464822850013
H         2.70870221659972    1.50813094786069   14.21930598899211
C         0.10064898162502    5.25328823907841   14.55527337535641
H         0.33107840317677    4.83502520878564   13.58443073455206
C        -0.85518318882580    6.24153105990964   14.68586176518894
H        -1.37278983952971    6.59630209926744   13.80528864243797
C         0.47405332673037    5.32425997460099   16.93332275023423
H         1.00973665040745    4.93927912727980   17.79245277340583
C         5.57532838772308    3.58813121176350   17.05064886881659
H         6.46297162301305    3.90110553297103   16.48316345106240
C        -1.16304909942036    6.78516211421870   15.92633676803900
C         5.02238987377305    4.85859867174984   14.35556082412229
H         4.18035474575255    5.45612804112582   14.70574490442471
H         5.10125644160056    4.96041610946197   13.27497087598902
H         5.93449000713699    5.24478958264940   14.80486924874344
C         5.95750341638208    2.50593723595415   14.24438792755605
H         6.90775240642763    2.84607718338510   14.64920848014475
H         6.01849913594692    2.53814940229145   13.15857497217578
H         5.79849190289846    1.47459641588328   14.55570127694404
C        -0.48342264645121    6.31002147567457   17.04408540846329
H        -0.71139102591033    6.72091818986063   18.01738837832420
C         0.64153831198897    0.58465455899318   17.88539249573632
H         0.91350152379274    1.50967122441141   18.39092607029197
H         0.30230408167158   -0.14550806438307   18.61594761305599
H        -0.16760411246817    0.79128384436717   17.18766833188327
C         0.85158176679124    0.47908936546960   14.31502740133526
H         0.38882936241575   -0.38375872315213   14.78874753317183
H         0.83833711551854    0.32841223576543   13.23728363821190
H         0.26368196578408    1.36528047797691   14.55488771449988
C         2.98041720303637   -0.26968095886732   18.14998923783217
H         3.87547216380016   -0.61448962819107   17.63613987455764
H         2.64591830385180   -1.04339164916362   18.83643612932029
H         3.21665979287026    0.63312204655171   18.70656764087907
C         3.15898826411543   -0.55512200233056   14.47756486544393
H         4.15663431928390   -0.42757142511547   14.89538516711937
H         3.24224783319193   -0.67503834960441   13.39943516728843
H         2.72745205637372   -1.46455042832228   14.88874066215457
C        -2.18669096259123    7.87390215176717   16.05117517015127
H        -1.72929593459034    8.84417339673382   15.85287573866921
H        -2.60581521986031    7.89755621026260   17.05411895933537
H        -2.99324190485483    7.73193768899429   15.33489423270847
C         5.95487978137134    2.37928813492320   17.91090923189599
H         5.08595152396070    2.08774866549860   18.49427815416421
H         6.77439628097146    2.63213937581641   18.57906015512301
H         6.25716363797666    1.54303453081245   17.28320820471238
C         5.13748501241223    4.74785133445277   17.94882418383512
H         4.91733444530178    5.63163932184905   17.35370988405891
H         5.91631845443109    4.98739582172214   18.66813832091793
H         4.23291166146118    4.44476756027966   18.47381327622294

