46
CSD_code = SOVZUB | q = 0 | S = 0 | Stoichiometry = C19H20ClN3O2Ru | MND = 9
Ru        3.77487460870761    6.36893764389469    7.70126546154490
Cl        4.76021519327809    6.74923889853554    5.59845244833570
O         7.47457993360092    9.73256102569125   10.14112186275761
O         7.06276827841666   11.75696661721227    9.55526436854330
N         2.23852383422070    7.38561843852081    6.90480834905148
N         2.34373767710598    8.72166418762007    6.84187083575760
N         6.81323439352180   10.56825306584445    9.55708850790147
C         1.14838254676666    7.04700911881732    6.23088748822649
H         0.85181229641028    6.02177065283824    6.11807916353084
C         0.52971921640730    8.19632364748252    5.73015045914187
H        -0.36738539690037    8.24590007021324    5.14897680429347
C         1.31902146756021    9.24651872776003    6.13923458090717
H         1.21755695153181   10.29807153774829    5.96862965825729
C         3.44768281183819    9.27251899193207    7.48929296221273
C         3.68944529870834   10.63870548204489    7.57978697600833
H         3.02314716146667   11.35214649892924    7.12111190040653
C         4.80633359090160   11.06893693912387    8.26468993474796
H         5.03732754658703   12.11726434573880    8.36648672240515
C         5.65528525868005   10.12310252420070    8.83421048635567
C         5.41489022068638    8.75713735611919    8.71850420669749
H         6.13454499906310    8.07732703506767    9.15190675740353
C         4.29256546852943    8.29257195608539    8.05156811755455
C         3.82196557315276    4.05241226628970    7.48766415939929
H         3.76985801888873    3.39480164102919    6.62792405979825
C         2.66512543385914    4.40024686543987    8.17734660651511
H         1.70867239443501    3.99176457862387    7.86702827755407
C         2.71639778598330    5.23745146325154    9.32937522276620
C         3.98427657280757    5.65528819941352    9.79294774566280
H         4.06814213426629    6.19646940138284   10.72827984422164
C         5.16963850830313    5.26677517774311    9.11361615165147
H         6.13690890041811    5.51838197618700    9.53530303711519
C         5.09802288959817    4.50897059804748    7.93457145688321
C         1.45518573104255    5.54206000969934   10.10515478947069
H         0.59602226295503    5.27540907670210    9.47765287456489
C         6.33166808222358    4.11286451817955    7.18360266097861
H         6.37771636450699    4.67477051485154    6.24751847566866
H         6.30954362605715    3.05168419729064    6.93873026749879
H         7.22912556885359    4.33167594882420    7.75770696111110
C         1.34655159132192    7.02902570396333   10.44891771158547
H         2.09114568487969    7.31745694883356   11.18613870930746
H         0.36282894356530    7.24664895361669   10.85758094257064
H         1.49625508847148    7.63493233847334    9.55479940692379
C         1.40863602454072    4.68290474202552   11.37305418085851
H         1.45569225589848    3.62527760058838   11.12157773363994
H         0.48515225562923    4.86793073022112   11.91606828093348
H         2.24560495125067    4.91865178790348   12.02635239127967

