67
CSD_code = SOVZIN | q = 0 | S = 0 | Stoichiometry = C20H32BN8O4PW | MND = 7
W        -1.74673711705856   11.33582795070878   16.66488073912280
P        -3.65626010504175    9.80999408805493   17.11699394194887
O         1.11676032270504   13.52282465181489   18.72569099141131
O        -1.73523728452820   11.35145822345605   21.17382881654776
O        -2.97675445262785   13.96858653751850   20.74908626540541
O        -3.62565633464723   13.59976663152721   16.49542932866100
N        -0.98020696145044   13.80894788585833   19.55212009336107
N        -0.18594289749358   12.47541716297348   15.70163774441022
N         0.55973446214500   11.93877181526770   14.73188874190447
N        -2.20827008797930   11.06065383537459   14.57289130938024
N        -1.26629463286097   10.69598396109055   13.70045229827851
N        -0.46009734086708    9.59234078473620   16.35119074258239
N         0.27087612600998    9.50743738272498   15.23731351876207
N        -2.83047306378905   12.72798619330464   16.67588123195749
C        -0.14713775149294   13.08171788849432   18.91857556592630
C        -0.38703318395509   11.74293593041156   18.39622346389621
C        -1.54485912246811   11.04904162620171   18.88415212580804
C        -2.34015815586077   11.76958287425959   19.96289956829410
H        -3.40432698939254   11.47203394980783   19.97556054345294
C        -2.30236964525412   13.29529290571439   19.71375665516221
H        -2.86110534591893   13.46857401981964   18.77391123965527
C         1.40704575481682   14.79539034613546   19.26581366053810
H         1.22369027231339   14.80248627795112   20.34224544110847
H         0.77924247707592   15.56136940608725   18.80429948947989
H         2.45741974176785   14.98423077657068   19.05240468117288
C        -3.13917893959749   15.34346204430426   20.48592837488865
H        -3.71818321790426   15.49338207599676   19.56617303944284
H        -2.16847290005908   15.83383492558528   20.37940308351287
H        -3.67798921729866   15.75736297446490   21.33632409458982
C        -2.46916233043584   11.60500981476670   22.34764168579344
H        -3.47752618248200   11.17569941188948   22.27747539453978
H        -2.55547039408258   12.67404094322828   22.54662236671097
H        -1.92071621607112   11.11684550119133   23.15254413132603
C         1.42104248458851   12.85689972055467   14.26305657669065
H         2.11169118441537   12.62081723403883   13.47899958825904
C         1.21812693531384   14.02996593574932   14.95619226515434
H         1.73487102697644   14.95941684540231   14.83637972735197
C         0.18673449068431   13.73637978998574   15.84856021590463
H        -0.29426866626446   14.37438214183487   16.56521416723649
C        -1.77466067331155   10.68436316241196   12.45938109047298
H        -1.17267241638434   10.41983450591718   11.61410316984484
C        -3.10064384066946   11.05644625529797   12.53256036467597
H        -3.80019973212894   11.15193485043650   11.72818468588453
C        -3.32259339664253   11.29016470138182   13.88877092678200
H        -4.21573210402047   11.63160119904339   14.37950019475173
C         0.98983922661295    8.37557368119169   15.24134277986326
H         1.64218549063847    8.12763060087096   14.42921779352595
C         0.71383936212026    7.69540993869887   16.40818957953799
H         1.11523312383594    6.75835350260962   16.73448001450944
C        -0.20612188718782    8.50623200256925   17.07044372902326
H        -0.66854972222217    8.34190216994253   18.02536935847404
C        -4.09335156561525    8.62132546478052   15.77595476311421
H        -4.30811096606239    9.15608027406701   14.85377053559843
H        -4.96108694817993    8.02644719186286   16.05919101858220
H        -3.24566534806480    7.95840522916304   15.60374316914764
C        -5.24394899499520   10.69427119906280   17.33514721948267
H        -5.17760055631522   11.30039025829669   18.23700141055906
H        -6.07735491272658    9.99638534682181   17.41584967208877
H        -5.40356667372626   11.36530655769062   16.49399387145128
C        -3.75694504533942    8.63777497843211   18.53176887544527
H        -4.73991422017582    8.16691720787980   18.54388515837426
H        -3.59836003402095    9.16616436947039   19.46788348642217
H        -2.99690518646066    7.86610892136405   18.42686936731265
B         0.20507683116677   10.57102283806587   14.14043414605926
H         0.90482040843438   10.29011221226474   13.22993957877800
H         0.54427254086229   11.18318339777397   18.26575023297836
H        -1.35952950136829   10.02530551779314   19.21873089763913

