76
CSD_code = SOWBIQ | q = 0 | S = 0 | Stoichiometry = C39H31Cl3NPPt | MND = 4
Pt        6.47179022493665    6.64930712952292    5.45756620367058
Cl        8.06071321623217    5.50498044231663    6.81464000058958
Cl        3.60139422192390    5.58746909640952    9.56964858643927
Cl        7.45586320532400    3.78607598674828   -0.10471103408461
P         7.98438500824891    8.25173372423896    4.95808636474095
N         5.13662536677192    5.27860215845326    5.94284996801198
C         5.05789438763915    7.51088207691553    4.31213308413020
C         5.22308000233162    7.65825384717038    2.93893484513312
H         6.15849088022237    7.35459619792226    2.48161891127695
C         4.23814722072383    8.19907796555005    2.12561798097810
C         3.04102547595459    8.59799230649238    2.70883913917168
H         2.25438401984141    9.01058246804110    2.09305803172445
C         2.86073047559438    8.48695517585355    4.07172758075961
H         1.92805941691337    8.80376242471638    4.51863226265033
C         3.85955011215515    7.94852203891392    4.88291081718450
C         4.46403231403523    8.37387095981126    0.65457876579408
H         5.33721285245401    7.81404084564396    0.32704486393421
H         4.62928362718101    9.42799838723690    0.42769649857892
H         3.59535995665171    8.04277363911342    0.08695424707283
C         3.65588683612138    7.97010431080965    6.34619355860645
C         3.26882884940341    9.18065020840160    6.92039225852221
H         3.17867003965043   10.04535594517129    6.28041068964022
C         3.01279513360541    9.29278649583833    8.27245497883322
H         2.72823336312221   10.24443250886067    8.69513016360853
C         3.11470837204090    8.18116020946158    9.09166029396375
H         2.91396569762742    8.24790693799888   10.14903510850994
C         3.47709346327966    6.97039644674575    8.53341387587685
C         3.77304616548574    6.83878471869404    7.17185876210682
C         4.12659412432462    5.50928152053076    6.67887098020136
H         3.50564751919409    4.68253351418746    7.03369640899118
C         5.47224270936390    3.92897350885198    5.56598341385581
H         4.60816182820174    3.25813441439782    5.68319167674747
H         6.27437502496693    3.59800866904799    6.23873214491715
C         5.98551372267826    3.90381959100964    4.14852922771063
C         5.20050947535438    4.41150235440771    3.11585941133560
H         4.22800470112933    4.83026280703897    3.33115075693873
C         5.65141277117663    4.38404975444410    1.80901113753229
H         5.04615157260338    4.78988095133356    1.01408454256297
C         6.88873501429547    3.82609186815162    1.53080854690248
C         7.67661911765371    3.30040305324642    2.54213554633601
H         8.63494756009302    2.86175601147387    2.31270257926306
C         7.22471893942957    3.34917068227516    3.84902586833869
H         7.84515987823151    2.96202259615925    4.64250936512646
C         9.16863273180827    7.74284919687555    3.68227844250540
C         8.92423583196628    6.55072703051876    3.01217800133952
H         8.05621935409643    5.96321037583649    3.29716523480441
C         9.78942737667606    6.12393126874236    2.02047360664388
H         9.59910487632182    5.20076616198837    1.49532207490682
C        10.90195199637926    6.88511854214817    1.70182670858763
H        11.57924931064973    6.55283094451837    0.92886862892218
C        11.15543532496467    8.06944576519562    2.37761922335029
H        12.02909247417562    8.65540161275439    2.13146635280864
C        10.29288901563099    8.50144934682085    3.36778866446629
H        10.48750674241566    9.42071042338568    3.90408794959816
C         9.10178172589340    8.86910954440183    6.25770082884355
C        10.14025655930269    8.02758894610888    6.65257028590333
H        10.25210022715574    7.06276963629259    6.17886768552573
C        11.00700662406464    8.41813302144354    7.65487352778826
H        11.80571393862866    7.75866945314941    7.96050970537272
C        10.84832947740037    9.64992866791647    8.26986692076908
H        11.52485353471620    9.95416997670450    9.05506759802567
C         9.82008878366599   10.49006210641995    7.87788382291459
H         9.69500467042257   11.45164910537773    8.35470485568664
C         8.94514661664928   10.10351290329045    6.87723206650511
H         8.14699687379365   10.76665336139028    6.57556011064957
C         7.21277984405576    9.76330907474554    4.29599769232604
C         6.19805578783579   10.32149985378141    5.07095683588845
H         5.95179105543968    9.86156988962645    6.02120389091009
C         5.50581087510886   11.42826412788344    4.62196069917121
H         4.72642669414818   11.86489365108021    5.22939128594049
C         5.80632294923188   11.97539921719656    3.38413545589251
H         5.25801246072841   12.83421382970943    3.02598596952663
C         6.80188952265463   11.41440143884063    2.60402416601842
H         7.02983528610900   11.83449041909177    1.63511071656782
C         7.50690405434546   10.31158678129007    3.05634979904550
H         8.27710353937389    9.87323837583279    2.43850277861818

