113
CSD_code = SOWBEO | q = 0 | S = 0 | Stoichiometry = C61H34CoF10N4O2P | MND = 5
Co       -1.00950847876064    7.61796820886786   10.55770861559847
P        -3.00954278844329    7.97410560406355   11.44905051753276
F         0.17841093998170   10.02325374360506    5.72611513226672
F        -0.08724624787848   12.01095679385774    3.90997438356340
F        -1.71762524188902   14.13564353793331    4.43308881409578
F        -3.10901865340753   14.23099921572112    6.78231896672539
F        -2.88538414525618   12.21419128578000    8.57257247043546
F         1.67978625557080    3.33913685865035   12.88622438866339
F         2.16762313753996    1.70157397901400   14.97831916725228
F         0.95898699299883    2.15132987681676   17.38380382551710
F        -0.75605795317153    4.25975061911896   17.66296410833090
F        -1.26735356636743    5.87872382284228   15.56412951690144
O         0.92090936931084    3.79917235661438    4.60690640122815
O        -4.78502237818492    1.35179782965380    5.51815048024320
N        -1.47690995601334    7.61385290684100    8.74355333213774
N        -1.02786018231352    5.75828067213073   10.74601573422633
N        -0.14164699070488    7.76932376006604   12.17002240017085
N        -0.54508874930282    9.39244324174439   10.42481010424099
C        -3.51270281057214    6.88912172820662   12.82755014131655
C        -1.19169484635396   10.00648449003786    8.21187840439313
C        -3.91060548147290    7.36533125598621   14.07259397461194
H        -3.95493574363973    8.42580909885407   14.26606395288296
C        -1.54269209431115    8.68420508867500    7.88932653560607
C        -4.27049983300357    6.47944849433904   15.07329336168181
H        -4.57039708496319    6.86095942641652   16.03730572319053
C        -2.11721702976146    8.26289080128164    6.65022268773656
H        -2.29189251891046    8.89392030329304    5.79997153769939
C        -2.40435201192669    6.94045376848187    6.76548161798853
H        -2.84281470633892    6.29256854144758    6.03236168582912
C        -1.99476754588784    6.53962531385194    8.07281078327562
C        -2.08398370335481    5.24874002934190    8.59356302484409
C        -1.58219246126194    4.88884092774919    9.84343419179259
C        -1.54890948961737    3.56372654436535   10.37542012698390
H        -1.89914411844630    2.68900114217751    9.86335097259730
C        -0.99010213864938    3.64711883081302   11.61126901245159
H        -0.81933509996490    2.84200885283972   12.29912110599862
C        -0.66895701507925    5.02073577665827   11.84390362417086
C        -0.12173932092275    5.54164289993725   13.02934724159406
C         0.15013175343415    6.90255226242151   13.17599972636736
C         0.82342221202919    7.62766057199609   14.20392736269394
H         1.19555182641589    7.21254696467542   15.12107261142031
C         0.91574323510128    8.93166759333650   13.79162275403776
H         1.37363374124573    9.74977993431970   14.31307161793483
C         0.30695269186278    9.00212512729867   12.51377692784245
C         0.05389036118877    9.95244639987330   11.50470033426742
C         0.27368112331911   11.32824675537390   11.25170918868737
H         0.73550602586239   12.02347517082760   11.92550347966041
C        -0.19345796344762   11.57866423455420    9.98824927102798
H        -0.17298828817289   12.51613693655698    9.46603276011156
C        -0.70650329670090   10.35115256221133    9.47445328530921
C        -1.34008886233641   11.06641678822476    7.20345715752089
C        -0.64630147894268   11.04093958786082    5.99293018614764
C        -0.76786695179643   12.06235513541175    5.05832991985765
C        -1.59691342219416   13.14899836421328    5.32361166022603
C        -2.30117869474526   13.19753150690419    6.52302456887310
C        -2.16726017478020   12.16456599887537    7.44192468731631
C        -6.07003634611387    0.90682037106662    5.87327574213881
H        -6.35064834961372    0.17917145938667    5.11328120912787
H        -6.79466006818971    1.72773930709174    5.87254762485863
H        -6.07152283421133    0.42223947420389    6.85512626239264
C        -4.17747827928286    2.28186449087745    6.30532670495973
C        -4.72795445303499    2.83262960754667    7.43856397667949
H        -5.70957289352187    2.54704528814113    7.78143596011798
C        -4.01764190547534    3.78897759156321    8.17341791851249
H        -4.47724206300864    4.21709147788354    9.05341874682662
C        -2.76956472107670    4.21098504910668    7.79258908710608
C        -2.16792695227582    3.65392695262710    6.63424834979075
C        -0.87436567001700    4.03401972477932    6.22159266635990
H        -0.34852405876980    4.76229172163989    6.81754389440477
C        -0.30898186891888    3.49104305445423    5.09394332221707
C        -1.02541527336739    2.52880228182552    4.34637500207971
H        -0.55216178063240    2.11916424825927    3.46819043376420
C        -2.27015215243787    2.13680481555800    4.73581523649453
H        -2.81665125609409    1.39840998572353    4.17117177910129
C        -2.87758451896910    2.68408195989822    5.88587859800948
C         1.69052178823752    4.76092127052496    5.28861240401407
H         2.61538658368495    4.85392339647151    4.72164044545327
H         1.92139730046934    4.43912702973970    6.30904544437274
H         1.18468026104729    5.73114970240309    5.32035735312429
C         0.17147612257091    4.64268590097640   14.15399232875163
C         1.05047605590517    3.56415088462290   14.04329738289527
C         1.32008624223569    2.72477837568344   15.11790700692948
C         0.70961833984986    2.95463199286784   16.34736215586885
C        -0.16083140879736    4.03115512560106   16.48756563222302
C        -0.41507320123824    4.85891048791067   15.40182657473040
C        -4.38057556167585    7.79278894895807   10.25895952345149
C        -5.39263713186529    6.84978687189652   10.40660808820802
H        -5.43152935891448    6.22156239461018   11.28365444118386
C        -6.36628475087899    6.71632817141259    9.43160424059785
H        -7.14482027995873    5.97793881985732    9.55531576106680
C        -6.34577762700006    7.51879798962527    8.30429132385621
H        -7.10179341765087    7.40310701849300    7.54256895229653
C        -5.35248002081154    8.47356084549521    8.16013939319182
H        -5.33354687563674    9.10992705011199    7.28811042243546
C        -4.37656291995585    8.60864138420657    9.12833737593590
H        -3.59526665404210    9.34241118442896    9.00695238813115
C        -3.15030674913009    9.65930458676192   12.12081651340073
C        -3.89248286249326   10.66949740765238   11.51829199535638
H        -4.51134280582985   10.46054162763128   10.66027645417721
C        -3.85515352702273   11.95632632202163   12.02568377682334
H        -4.42803938234898   12.73268837714644   11.54192751411746
C        -3.08360461094679   12.25024263758475   13.13679664220043
H        -3.04876633833917   13.25867514048225   13.52053070022484
C        -2.36293444443018   11.24397015126501   13.75873505963883
H        -1.77037666322405   11.46034604413057   14.63504744615829
C        -2.39012881012545    9.95807632774760   13.25353834336947
H        -1.82940778365597    9.17703801391355   13.74480760492605
C        -4.24142008694183    5.11409939828249   14.84830783687417
H        -4.50614188081368    4.42889615811301   15.63941877768280
C        -3.88215444786701    4.63341617640338   13.60001975977249
H        -3.87637699508518    3.57116587945628   13.40391460788490
C        -3.52751301670414    5.51402743251339   12.59580330137222
H        -3.27999778219852    5.13649508833951   11.61619694729723

