85
CSD_code = SOWCIR | q = 0 | S = 0 | Stoichiometry = C27H49N4PSi3Zr | MND = 5
Zr        8.45126777706686    3.95818288789488    4.48479792188534
N         9.01348832111160    2.93672567899975    6.18931632310893
N        10.05882468234186    4.65683498501597    3.34287661670064
N         6.97470026593441    5.33955949946303    4.94357156368254
N         9.62416296021111    5.64231315328661    5.92384733267544
P         7.31125235415544    1.89582271260202    3.29720838544260
Si        9.73906362649778    1.39550623475103    6.12143470447561
Si        9.71130104527477    5.57894612368785    1.94646326928719
Si        5.60862815571524    4.96564709015036    5.90306274274544
C         9.02748091938192    3.76448021596666    7.37067237729055
H         9.34426700741052    3.21101143614576    8.26522622666444
H         8.02129384129244    4.17100838676540    7.56616676527138
C        11.19401899382381    5.00061037443940    4.17170875998533
H        12.04874165389193    5.35743674157101    3.57768253657104
H        11.52811417367226    4.11534739799039    4.74108889361153
C         7.57042656339355    6.65408203721384    5.03211668608350
H         6.82412613296852    7.43567429670761    5.23856141910020
H         8.05718455992840    6.90670326594661    4.07676167814901
C        10.00755277891410    4.93219173684886    7.14511619496049
H        10.03900761287672    5.60784814379767    8.01456445619076
H        11.00239922376618    4.49815382291783    7.00552772860484
C        10.78345920352773    6.10789808197507    5.16280182875903
H        11.61884580857418    6.38491405756617    5.82474165669155
H        10.50092999412702    6.98504781653300    4.57721326065311
C         8.62693071818334    6.68777720914431    6.15868300284818
H         9.09372117920344    7.68229717492871    6.23107033725457
H         8.10767704760089    6.48247379958245    7.09746974333590
C        11.15723544001313    1.14707148864418    7.39788409432515
H        11.93587142650622    1.89723130560471    7.29523541193977
H        11.62139240053389    0.17415947858002    7.28150936013086
H        10.77873492183737    1.20318452430180    8.41323021814349
C         8.49797822755914   -0.04560727830675    6.39463983760830
H         7.69917902395241    0.00093331851024    5.65870666214518
H         8.04369354542626   -0.00570292100958    7.38033988908863
H         8.98142025023712   -1.01196813879355    6.29503853977620
C        10.48885174042500    1.25980843947843    4.35908932030932
H         9.92090076391231    0.55866626759604    3.75452622642036
H        11.51885303298482    0.91657286004923    4.36712111645781
H        10.45414559971099    2.23763102353769    3.86787657546617
C         9.97074228033425    7.49785392487485    1.99503513329288
H         9.31348412332470    8.01858837476162    2.68673171508602
H         9.79659680107773    7.92281472873324    1.01100196247886
H        10.99491511884237    7.73958942198019    2.26683751579980
C         7.84044419653503    5.26527702444165    1.65075431303959
H         7.33471789459526    4.98698671441057    2.59130184013552
H         7.70290712848659    4.46326891324468    0.93086403917613
H         7.34890869113818    6.14578618940637    1.24679958793010
C        10.77918244940639    5.07311423997835    0.42659755407264
H        10.15995071333938    4.72026569096132   -0.39037066419686
H        11.47243251768966    4.27665255032268    0.67728198228181
H        11.36379845562239    5.90854297660585    0.05578024617177
C         5.72303884453961    3.12714076338297    6.43185489988103
H         6.61420411913781    2.64408413737556    6.01502838695820
H         4.84940064016271    2.58758025086602    6.08629893140580
H         5.75606416198332    3.01900894222204    7.51200978587264
C         3.96383534394933    5.29823401676930    4.97199636407282
H         3.78716294158705    6.36184484384484    4.84251411386197
H         3.11930418367208    4.89050822763146    5.51741057311302
H         3.96780099289312    4.84148481394160    3.98796606721465
C         5.42574406582537    5.98752598018406    7.53432689110550
H         5.52278336884829    7.05212735894750    7.34225570284932
H         6.15872343416872    5.72070110190534    8.29146545909085
H         4.44425983870656    5.83148537242415    7.97002705081765
C         5.50249490214404    2.11852323358804    3.15078718548221
C         4.66088236390388    1.32396698812976    3.92997798690540
H         5.10221765609301    0.60793995962940    4.61057916323451
C         3.28618191513445    1.42449793557860    3.82623925254776
H         2.65159766669509    0.79902773257090    4.43876321277381
C         2.72029080747790    2.30946385077526    2.92399159367302
H         1.64653807527257    2.38280939447948    2.83225620920235
C         3.54340204917553    3.09482044378214    2.13128871925173
H         3.10747659179085    3.78279813112251    1.41976370578597
C         4.91755512830178    3.00762379023091    2.24699349169952
H         5.54622656333393    3.62205266039198    1.61674292398072
C         7.74682297509157    1.80149860804131    1.54340541718367
C         6.88677922545168    1.23483368881576    0.59469179698603
H         5.88510389307158    0.95355770503609    0.88721032737827
C         7.30025749904346    1.02901825410364   -0.70529148889664
H         6.61285024755810    0.60303984923467   -1.42308704779350
C         8.59432538457424    1.34389929165501   -1.09052778178560
H         8.91947051107474    1.17010031324725   -2.10581595436792
C         9.46786073980054    1.87724014341555   -0.15561750500578
H        10.48198192134484    2.11385946661268   -0.44454882190946
C         9.05072078315324    2.11227546385323    1.13952635216240
H         9.73223782071867    2.55751180640981    1.85735214614317

