94
CSD_code = SOWGAN | q = 0 | S = 0 | Stoichiometry = C41H48N2O2Ti | MND = 5
Ti        5.89185716471751   -1.39848611279102   11.58228992205124
O         6.56626714557320   -2.84769873507223   12.35067716262072
O         5.57159082035154   -0.11385968397039   10.42088634082761
N         7.32872634660562   -3.42552988409597    9.57062920658588
N         8.20406455677986   -1.47170885401202    9.51720955761706
C         6.97000537060064   -4.09863912140577   12.46929340444256
C         7.50157658818678   -4.60998822560628   13.68526391704304
C         7.80525733496822   -5.95832197194211   13.76880065019133
C         7.65603699482036   -6.83728656989566   12.70631707680368
C         7.22275021857274   -6.32062418276517   11.49865694612143
C         6.88484990637048   -4.98615541532949   11.36832564615315
C         6.44750953182159   -4.48268621944227   10.01295701561697
C         7.13771838186908   -2.15786732498432    9.96003746391026
C         8.50380077811042   -3.54212633766369    8.87931762339110
C         9.05383973361761   -2.30094256964291    8.83584451050066
C         8.35556917775341   -0.05204877340102    9.77057738385376
C         7.29922012447114    0.75418358269393    9.04880236232869
C         7.70387906520505    1.59785149229465    8.02578716036867
C         6.79173136872270    2.35539512767784    7.31876552791573
C         5.44486373444647    2.20395823034103    7.62799098814786
C         4.98766014536497    1.36219544974545    8.62414243869227
C         5.93394682744529    0.64040520957742    9.40511501054100
C         6.59384527483250   -0.03144952396500   13.07369241387224
C         5.89734166503743    1.24916347752643   12.93186486647857
C         6.43092772970672    2.30830363340794   12.18522543023923
C         5.75969249742632    3.50781093530875   12.05919861572217
C         4.54302013627260    3.70184658357686   12.69291482873634
C         4.00239354985146    2.67357137910645   13.44934210178652
C         4.66497521466540    1.46836295846462   13.56482194914213
C         3.88755264740400   -1.85749750925544   12.16337316470278
C         3.62197054862098   -3.25519927438713   11.83402190150152
C         3.87236070105726   -4.28966008993442   12.75055334749500
C         3.68017381179561   -5.61390490239914   12.41621976409854
C         3.20010352180779   -5.96193955501676   11.16295580584428
C         2.90398940387341   -4.95920551287672   10.25374476026150
C         3.11227368256961   -3.63190541662195   10.57926072453182
C         7.97373737221957   -8.29638225527026   12.84525035012385
C         7.22009212054345    3.30257783229929    6.23795137649070
C         7.76240984163483   -3.67924767426699   14.86554667449202
C         8.39546489873770   -4.38502996894668   16.07075868541251
C         8.74468724339592   -2.59062866872079   14.40596948022936
C         6.44085744606597   -3.06096312331727   15.33928034810424
C         3.49530183970375    1.15291974971601    8.85071787726269
C         3.11936328238897    1.55041067490224   10.28237290534361
C         3.19265492924398   -0.33273208319737    8.60361867139402
C         2.61593962611636    1.97081310360287    7.89797562704118
H         8.17819749479034   -6.36165668850782   14.69595235483565
H         7.13123122604140   -6.97405421542548   10.64133094622245
H         5.43230254020965   -4.06396273902318   10.06700025192324
H         6.46405368410932   -5.29919550126354    9.28687178352089
H         8.85124093320029   -4.47262942058576    8.47940016270164
H         9.96264344438433   -1.95876604637673    8.38397743072541
H         8.26952604072620    0.10064686950603   10.85773860560169
H         9.35089990474938    0.25549826597784    9.43946022590447
H         8.75707443260481    1.66761236157050    7.78627792910626
H         4.74042875960750    2.77649005714991    7.04714718113972
H         6.37885767654785   -0.46908628747468   14.05561822993466
H         7.68172093773275    0.10326145038102   12.97214229895811
H         7.39282620747399    2.19017509453478   11.70074119291331
H         6.19429833066269    4.30318293790173   11.46956274598394
H         4.02466889354064    4.64539296341872   12.60396529713490
H         3.05745009174332    2.81736567781777   13.95464076162440
H         4.23459905662394    0.67564871033276   14.16721997348673
H         3.83906673373439   -1.68982618765841   13.24861853023205
H         3.19173927741660   -1.18282100084869   11.65090016242996
H         4.21981033705906   -4.03979714713465   13.74341552410174
H         3.89803368400425   -6.38486127524875   13.14178995892225
H         3.04265799652184   -6.99860247084724   10.90504934162374
H         2.50439498702098   -5.21385419997520    9.28131409465107
H         2.86103182966956   -2.86468227439859    9.85738400774666
H         7.09520156496521   -8.89878157388635   12.61686335421566
H         8.76365281975567   -8.58520369604906   12.15225233046172
H         8.29906702754232   -8.52883850718967   13.85599323234590
H         8.28992070049414    3.22961245625024    6.05855797415389
H         6.69547023964502    3.08724785203705    5.30800053806512
H         6.98745938207033    4.32909483015734    6.52032247729918
H         7.73549758712601   -5.14858549827928   16.47561036847624
H         9.34984566877488   -4.83727378618731   15.81108345719564
H         8.57516911464260   -3.65074321089470   16.85393171937679
H         9.70910048792997   -3.04008214390067   14.17302549313652
H         8.37362017942916   -2.08680062296253   13.51431854476510
H         8.88837738147165   -1.85232824939326   15.19279454907544
H         6.62590768320403   -2.33180103947997   16.12685318210275
H         5.93101450744921   -2.57038064042953   14.51208296242520
H         5.79359943392224   -3.84017072909400   15.73892747364436
H         3.71597613939804    1.00427396911694   11.00947401282281
H         3.29743647908085    2.61297772823888   10.43158471144510
H         2.06548209879508    1.34724805634045   10.46539564120356
H         2.14805237467388   -0.54631895294789    8.82467385324149
H         3.38390906007200   -0.58359389804453    7.56087218688485
H         3.82778856111411   -0.95779511206239    9.23307039671170
H         2.76958661653422    3.03791269665349    8.03890007096288
H         2.80749031787704    1.71412545166294    6.85847514163139
H         1.57056977246133    1.75337180650637    8.10889835089598

