69
CSD_code = SOWHAO | q = 0 | S = 0 | Stoichiometry = C34H24Cl2N8Zn | MND = 4
Zn        6.51975178796749    4.65266590678412    3.97913323685760
Cl        7.23487579012125    2.75118282924452    4.89458527907086
Cl        7.79112864267263    5.85335182338786    2.66462990974089
N         3.89600184066273    3.44487372340013    3.05776193622590
N         3.44755211632389    5.79365380623079    8.28842999070345
N         4.04447039053996    5.95305556910087    7.12046918473931
N         4.30585903559158    2.57738381092106    1.10055182207595
N         5.34993611537859    5.55142306091614    5.40750016571006
N         4.24529541141577    1.90480363901715   -0.03528065150265
N         5.09628463474043    3.87266442340571    2.68287698052109
N         4.73233759145004    6.70715159434781    5.19588227577910
C         3.11592529272318    8.15913511905021    6.31709732664323
C         6.48350700096563    3.46472845758797    0.64194927069395
H         7.31856958286740    4.08051725457165    0.94174012313525
C         5.27118621478151    1.99131917539918   -0.84161356292291
C         3.73682860562268    4.71619756795956    8.97067545090306
C         3.06588938750927    4.57855046152349   10.26762169852863
C         5.37090581001716    3.35823434731120    1.49647815487175
C         3.94208502179778    6.97562408844516    6.21051499393489
C         6.42539433085994    2.77365716102775   -0.52961012242025
H         7.25417352308370    2.79046684059039   -1.21750636739639
C         5.17404696777231    1.22495471880383   -2.08823546693134
C         4.94556652637316    5.06564993847699    6.56989201333871
C         4.41412129933747    0.05577002902037   -2.11808172274549
H         3.92169536445033   -0.26968339534202   -1.21509319561302
C         4.30958496136212   -0.67986766757855   -3.28221628779972
H         3.72413391583502   -1.58688852465875   -3.29391764818721
C         1.79973971690906    5.13338200930283   10.45135003092886
H         1.32610655344473    5.63966524332832    9.62457752647960
C         2.10170936666321    2.02258842940220    2.19145896827576
C         5.81584053103661    1.64734286024440   -3.25060154407406
H         6.38147668353199    2.56667402699204   -3.25662408325764
C         4.64018094495089    3.72267423425629    8.48374830559848
H         4.81135094322439    2.83359968536992    9.06758069840873
C         1.60790551236489    9.59540632100559    7.51382077203479
H         1.04094892818286    9.81915503440740    8.40553104849062
C         5.24951080311958    3.88794314537923    7.27670810052256
H         5.93261522226234    3.17552877395789    6.83501290898865
C         3.06841409507901    9.03046635429207    5.22629459176228
H         3.64827636370572    8.79086539754170    4.34944575708127
C         2.29234092851525   10.17021571835200    5.28651736668114
H         2.25754926507675   10.84136852615772    4.44159297909250
C         2.38151801745287    8.45026273225977    7.46605375123064
H         2.42376906427830    7.78649568278145    8.31484770719706
C         3.39669299020857    2.66528759320739    2.12325587379485
C         1.37404354060950    2.12134973154062    3.37897566129663
H         1.80500581697292    2.66739347778670    4.20300208763700
C         4.95561236520609   -0.25649034052347   -4.43261088891729
H         4.87529329361691   -0.83252984900964   -5.34221177962848
C         1.15889655044313    5.02108214497502   11.66962383304652
H         0.17604404381059    5.44815111372196   11.80119273881635
C         3.68109658400292    3.92057677963173   11.33074298356071
H         4.67467171513466    3.51417185366966   11.21631651579681
C         5.70312719339456    0.90920033259564   -4.41415485860866
H         6.20103048141577    1.24584470241773   -5.31091088550028
C         1.56551877181206    1.32222281010657    1.11172356952989
H         2.11927099159902    1.24984126571440    0.18947837510552
C         1.55879817122324   10.45480909825300    6.42866219410008
H         0.95158961112599   11.34676632979026    6.47325957300284
C         1.77535044639912    4.36205393925641   12.72145933185771
H         1.27486349917032    4.27561970474928   13.67409452206283
C         0.32173634806079    0.72926669947418    1.22691990853583
H        -0.09091609767937    0.18849884607359    0.38804216220091
C         3.03739243662546    3.81772037967300   12.54993266917141
H         3.52417561534964    3.31251709884446   13.37060989290154
C        -0.39556698598987    0.82689006443166    2.40722457073924
H        -1.36589242264810    0.36030131241521    2.49020215416165
C         0.13347333864371    1.52547261825520    3.48200764077771
H        -0.42476840044701    1.60177235862467    4.40311248112157

