117
CSD_code = SOWJAP | q = 0 | S = 0 | Stoichiometry = C42H70NiO4 | MND = 4
Ni        1.52187949016772    3.15356552959058    5.62523982227784
O         0.34616813673594    4.57604061329024    5.72439363313081
O         1.31432805904119    2.82257275194502    7.43724005339070
C        -0.35073336649065    4.98202830298893    6.69719069559074
C        -0.26122494084312    4.47445635082839    7.99445080126575
H        -0.85700905288718    4.91527304604929    8.76933827827500
C         0.61492778021010    3.42911432995080    8.29787944614695
C        -1.26068763080824    6.18579378842474    6.43936360848231
C        -1.84547067423373    6.23677756317170    4.99527102104429
C        -3.00537659041790    7.24642890411483    5.15692008945038
H        -2.56572302330760    8.24893280698235    5.17187462236114
C        -3.60336155103091    6.94522739084009    6.53864708100189
H        -4.49089347612277    6.32065097308510    6.43355940117124
H        -3.91025232780929    7.86339064424636    7.03947637707336
C        -2.51550751193212    6.20670027776844    7.33340354872714
H        -2.83357327273696    5.18773826720253    7.55328303445408
H        -2.31397563014855    6.70476483859402    8.28134269697344
C         0.78447531071259    2.99005032396535    9.75653829981083
C         1.74096036425455    3.96593213730480   10.51955341149183
C         2.20033093589758    3.09724971335871   11.71342070185427
H         1.38954058665556    3.10636809346562   12.44929910795528
C         2.34509231273166    1.67753580019303   11.14514768229158
H         1.99382866097447    0.93529162331905   11.86223066249410
H         3.39414879307152    1.46070500564351   10.94204157331494
C         1.52680931805015    1.64314267794113    9.84825604674113
H         0.82085368941390    0.81368657431316    9.83192068193568
H         2.17925843952904    1.53401793224572    8.98478670283384
C        -0.37102539294330    7.39793874740298    6.76216788785801
H        -0.90747276083252    8.32904468649400    6.60285059326843
H         0.52442398321038    7.39203546034271    6.14705825126731
H        -0.06308874947385    7.35626885946650    7.80574027714652
C        -0.83995139488156    6.69960242289979    3.94253089523713
H        -0.54773086398403    7.73558946028622    4.09346503002973
H        -1.27929043567915    6.61667044390349    2.95046660831765
H         0.04602484642297    6.07246889391050    3.98074928671813
C        -2.36581893049034    4.85396766662273    4.58780433517777
H        -1.54151127711679    4.14834600386682    4.52302821344210
H        -2.83601927047965    4.90392414339686    3.60901431394577
H        -3.09141133953755    4.47439569912158    5.30200766683477
C        -4.05706567742191    7.23689883538308    4.05477546824625
H        -4.77044264755251    8.04131187372469    4.22542437946439
H        -4.60603375253956    6.29929353960064    4.03726714814838
H        -3.59745651818482    7.39340273331152    3.08177885582449
C        -0.59015341715725    2.83681772368058   10.41656806969576
H        -0.48303642682605    2.39282822533634   11.40269299181368
H        -1.20536216816398    2.17373473397777    9.81113271821058
H        -1.11591416244272    3.77978190542649   10.52067570686019
C         1.07699406060144    5.25418308700364   11.00089697154985
H         0.68897335654200    5.82295830982910   10.16006699374224
H         1.81312109600458    5.87312090049152   11.50976013854147
H         0.26882848700678    5.05635904895322   11.69987604143658
C         2.91692887515284    4.34763996975926    9.61467910072982
H         3.44920476852098    3.46900246489336    9.26421994042400
H         3.61285257270777    4.98946276226320   10.14915242482959
H         2.56161826074044    4.89668182229321    8.74448022388202
C         3.46182777055106    3.56648129927627   12.42796258835850
H         3.64524585664655    2.93240997832625   13.29346013089045
H         3.35388237166409    4.59062085386296   12.77781197619484
H         4.33015043878481    3.50802583653327   11.77758326378048
O         2.69734978397023    1.73090481206127    5.52604971790718
C         3.39418611179381    1.32480056144914    4.55326034934974
C         3.30504375878110    1.83264380709117    3.25608079272492
H         3.90084538840549    1.39181256867296    2.48121569705180
C         2.42922263999668    2.87827490092379    2.95269498317456
O         1.72967694812200    3.48471847668739    3.81328742382085
C         2.25996563167972    3.31753306714135    1.49406201219056
C         1.30340012439604    2.34198744242333    0.73067135936905
C         0.84445434130312    3.21097930066141   -0.46313980171707
H         1.65539536435456    3.20183480248918   -1.19885100965670
C         0.69987616091222    4.63060585459470    0.10538815948968
H         1.05141686862751    5.37291059014170   -0.61149153930689
H        -0.34917147223969    4.84760607263011    0.30834469515949
C         1.51793501872876    4.66460346166763    1.40243238541558
C         3.63474947344508    3.47057809333850    0.83432648699869
H         3.52790447224434    3.91478288241237   -0.15172439180610
H         4.24998722481512    4.13340793058631    1.44001487272586
H         4.16032062275692    2.52751689787684    0.73013709361709
H         2.22407871831287    5.49389330728819    1.41902531176023
H         0.86536636431691    4.77373752030355    2.26581446716911
C        -0.41699132624813    2.74214688517059   -1.17804623694850
H        -0.60009767066501    3.37642270289326   -2.04346274410951
H        -0.30918183698567    1.71805085864560   -1.52806583558770
H        -1.28543490502590    2.80065987676944   -0.52783556900463
C         1.96718425859944    1.05368944501743    0.24922040346688
H         2.35493499554078    0.48469251021521    1.09002331508157
H         1.23102377301951    0.43498827436897   -0.25988323073408
H         2.77551786018422    1.25146696381304   -0.44957638363215
C         0.12715639212134    1.96035790794961    1.63521467834901
H        -0.40498154148598    2.83904418162451    1.98575340954567
H        -0.56881317443586    1.31880434137649    1.10046952146696
H         0.48216254327950    1.41104764047783    2.50536548266944
C         4.30387842622802    0.12082869639112    4.81105423149198
C         4.88844931655972    0.06944853273059    6.25522787679645
C         6.04811157459723   -0.94049003452768    6.09357787195462
H         5.60818873458932   -1.94287147681029    6.07838115296460
C         6.64639267618267   -0.63920854914181    4.71200009086471
H         7.53407906188908   -0.01488825603758    4.81732885175524
H         6.95311728352907   -1.55736789197089    4.21105705652748
C         5.55884479199358    0.09974321675450    3.91721234907929
C         3.41395202736452   -1.09101771833203    4.48790488406219
H         3.95014519460026   -2.02227053888812    4.64715793737003
H         2.51840833474929   -1.08497316076158    5.10287958206187
H         3.10618744874730   -1.04908794910901    3.44428820240110
H         5.87721213925538    1.11865411293050    3.69754436605197
H         5.35732930074882   -0.39811709842905    2.96916588374142
C         7.09963591626531   -0.93144047184320    7.19588344381136
H         7.81281909871023   -1.73602077862831    7.02520599130348
H         7.64885743333007    0.00601165653692    7.21363512459028
H         6.63983173036862   -1.08798396349525    8.16878039736561
C         3.88264876552092   -0.39329888304455    7.30773060270513
H         3.59017334381899   -1.42918076257480    7.15656384755723
H         4.32186182239158   -0.31066603437785    8.29987442308141
H         2.99684388476671    0.23407636609990    7.26950201473057
C         5.40912948842066    1.45203387331960    6.66303374436454
H         4.58501250461842    2.15787351516518    6.72782081846837
H         5.87917078692885    1.40176889478973    7.64188781045426
H         6.13493161367901    1.83153611203162    5.94900799503783

