71
CSD_code = SOWKEW | q = 0 | S = 0 | Stoichiometry = C34H30ClN5Ni | MND = 4
C         8.45395866948796    1.28097972052646    5.98501205886732
Ni        7.12029270050612    1.39684789186569    4.60031085304508
N         9.59453303478054    1.95109258822704    6.25794521841441
C        10.16364441059740    1.47442933931758    7.40438182631885
H        11.07138804043512    1.88047863208415    7.80066282065078
N         8.33054091104321    0.36293398256917    6.97674661035117
C         9.37080132634737    0.47907021059745    7.86096580850484
H         9.48436190621309   -0.16191047598088    8.70962718600209
C        10.52048129678304    4.19444307209015    6.31121784786728
C        10.22751433391378    2.98387684923175    5.46341658287976
H         9.54721958039507    3.24715242347990    4.64918170949247
H        11.15449497765504    2.57942780677204    5.04099443514639
C        11.81513742193418    4.48584587752353    6.71767068770547
H        12.63577409104829    3.85837244645591    6.39612700103979
C         9.47440871542074    5.01175577977174    6.72195571080334
H         8.47145567221462    4.79126428370634    6.38780933069170
C         9.72529416507505    6.10528672589382    7.53050208410246
H         8.90874838272894    6.73867953873230    7.84362062316339
N         7.12032713069970   -0.48479044753032    4.60013099280888
C        11.01892503033875    6.39190816489982    7.93475925259988
H        11.21385776692136    7.24663102599516    8.56594323344360
C        12.06429822164514    5.58304867606506    7.52437942319555
H        13.07565486536834    5.80506027591396    7.83316376155577
C         6.90067896283207   -1.16461315936044    5.76627542499352
C         6.12003737180275   -2.33028070834168    5.80462686877452
H         5.74902856237285   -2.73102531494933    4.87212961395082
C         7.39717442242873   -0.68847005211312    6.99891155138218
C         6.23974308681822   -2.42616804210787    8.21219180828018
C         7.04333307864475   -1.29619548589677    8.19240385689878
H         7.39633341115192   -0.88310851875852    9.12652283059912
C         5.80508380495543   -2.94388998149092    6.99570874190600
H         5.19125075108725   -3.83329254007435    6.98544250648160
C         5.85171514706283   -3.05720506983606    9.51554283774900
H         6.71775826021241   -3.16495030149235   10.16693694613643
H         5.41232783080232   -4.03824713406178    9.35395596852092
H         5.12042220555826   -2.43601080999933   10.03376682561164
Cl        7.11999213293453    3.47469765579292    4.60059689982020
C         5.78678784849962    1.28121726855091    3.21534115804786
N         4.64627660035003    1.95136357676526    2.94219285618345
C         4.07740180351114    1.47479169784720    1.79560715451180
H         3.16974766126781    1.88087755634905    1.39916653325091
N         5.91040361407693    0.36324656475347    2.22353709319187
C         4.87032872032123    0.47946445694725    1.33911406893149
H         4.75693056910604   -0.16145044912025    0.49038639342209
C         3.71997790599931    4.19456624965439    2.88872454244789
C         4.01302186851778    2.98407321599780    3.73659991220080
H         4.69314789439046    3.24751770578900    4.55091917622267
H         3.08604545142236    2.57947958494304    4.15889553962970
C         2.42529701214533    4.48596353661060    2.48234640678743
H         1.60468980061408    3.85848465293706    2.80393758653557
C         4.76603412810355    5.01186546105023    2.47788740098213
H         5.76900059446405    4.79135081228491    2.81195598000575
C         4.51510040491455    6.10537496939305    1.66932652429932
H         5.33161807043681    6.73873022567311    1.35607797850500
C         3.22142769816323    6.39195513364108    1.26510615453423
H         3.02644358093547    7.24672758487891    0.63400242732957
C         2.17608146293272    5.58311981347748    1.67559108141099
H         1.16470402696064    5.80517444345388    1.36695633994790
C         7.33997737801244   -1.16459163443847    3.43400527793871
C         8.12038884486541   -2.33041353136087    3.39563395686447
H         8.49114459879127   -2.73137693215961    4.32813928227124
C         6.84367767798623   -0.68824116273596    2.20137122624618
C         8.00093108842637   -2.42603495972394    0.98805052033574
C         7.19755238037040   -1.29591080467697    1.00786243348159
H         6.84482725195619   -0.88262189055689    0.07372858905226
C         8.43534692042768   -2.94397177384966    2.20452675594149
H         9.04891428041240   -3.83355840092831    2.21478386398607
C         8.38894849746106   -3.05701047940261   -0.31533596219456
H         7.52282885032781   -3.16503678956575   -0.96657834909949
H         8.82863144606996   -4.03792214537789   -0.15378414024924
H         9.11997238753861   -2.43562848261585   -0.83371350270847

