69
CSD_code = SOWKAR | q = 0 | S = 0 | Stoichiometry = C26H36Cl2N2O2Zr | MND = 6
C         9.26415806018589    4.36761128844167    1.90925547727541
H         9.26871787631966    4.66714803481096    2.98011207526394
C        10.72296638813261    4.05228786330280    1.51034528742850
H        10.72051010072466    3.74379503329156    0.44177033055667
C        11.59025566204418    5.30534696548656    1.68745057755288
H        12.62225493791145    5.08221029131610    1.41005747603528
H        11.58147801117030    5.57825786155234    2.74592751698203
C        11.04805979350390    6.45300743327510    0.84133009036908
H        11.66473702062124    7.34220222571611    0.98823364877322
H        11.10122870924024    6.17878154257707   -0.21490436455530
C         9.59899099937981    6.75926325843952    1.21040976429420
H         9.21647345966035    7.56326854791803    0.57811781484051
H         9.55489121834612    7.09877318342156    2.24791834448178
C         8.72670074637324    5.51841241075820    1.04882431229311
H         8.72443108290462    5.19025001533780    0.00608187442962
H         7.69511442896927    5.73796702088644    1.33101030167208
C         7.19702998332544    3.05064079422729    2.02731798089112
C         6.52626562393517    3.85930056156192    2.96562863015358
H         7.06443605471364    4.63147966856681    3.49640766215637
C         5.18585316378073    3.65854277505486    3.23173265477262
H         4.69482070951923    4.28193039467480    3.96575210093571
C         4.46132547900665    2.67901075947110    2.57043769852562
H         3.41109162473308    2.54240473336336    2.77889940362875
C         5.09795462160723    1.89063175009076    1.62022164630424
H         4.53121888602339    1.15111540442276    1.06936292678149
C         6.43901643018361    2.06441404319540    1.35414283741038
H         6.94216732120511    1.49002727778716    0.57940890258256
C        12.38072792152919    2.40593597322308    2.26632385293407
C        12.89005850949591    1.75127905363619    3.41215207710533
H        12.29222925523585    1.79531645905568    4.31966106880555
C        14.12676955021797    1.14371577405656    3.39577179646002
H        14.50825402988596    0.67576427722815    4.29412806761856
C        14.90008602717282    1.15329811707655    2.24153087790139
H        15.86912682331861    0.67791837384317    2.22913233692754
C        14.42163524717144    1.79935635733917    1.11217284961630
H        15.02156957541716    1.81771989032323    0.21312959499884
C        13.19121119539648    2.42756739729184    1.11426924219158
H        12.84387570952546    2.92186973524663    0.21829212336139
C        11.73312829255383   -1.01937553111596    2.13749101334997
H        12.38688382019986   -0.29764620516146    1.63890582947253
H        11.15610977794524   -1.55383342753605    1.37159584106771
C        12.49022947984912   -1.98904418004056    3.03847042474954
H        13.35642873494542   -1.49438293741248    3.47705496017493
H        12.82032471916205   -2.87308523935236    2.49896109838305
C        11.45002528482157   -2.29111156594159    4.11254005976165
H        10.72219708308227   -3.01583129412054    3.74337465788755
H        11.88294304542612   -2.66467615734464    5.03689563593065
C        10.80510733882944   -0.92146615199882    4.29092823729537
H         9.77327249643922   -0.96503634314349    4.65149728102639
H        11.39101843757048   -0.30235757060484    4.98250399157282
C         7.80306846613905   -1.15427001354311    1.91074116953380
H         8.77189742996145   -1.60798104276485    1.68218645869766
H         7.34501840339068   -0.81884070068146    0.97118594991443
C         6.86014361418696   -2.07772590465508    2.67366090908731
H         7.41391955215390   -2.69413039787839    3.38398213320116
H         6.29438361859159   -2.72606311734377    2.00956065732034
C         5.99079598842902   -1.06613217279794    3.41376803124142
H         5.24332761439069   -0.64446524195722    2.74238739571336
H         5.49193787007776   -1.48367641794475    4.28457970833995
C         7.01271166202636   -0.00113787868957    3.79616179967344
H         6.58317037110845    1.00292872098488    3.86161553121329
H         7.49491198800711   -0.23709381844307    4.75386122131085
Cl        9.26390146085419    1.90672419977553    4.74903935533675
Cl        9.92078167110329    0.65633502818355    0.25802148935231
N         8.52192496194323    3.13570964781399    1.68975830750248
N        11.13953377740525    2.97126124459675    2.39078882510924
O         8.02050984256230   -0.01289592665490    2.76065785962855
O        10.80963181235055   -0.30567171230697    2.99001358576390
Zr        9.63816914657618    1.61064956076593    2.41919372164890

