52
CSD_code = SOWNUQ | q = 0 | S = 0 | Stoichiometry = C28H18ClMnN2O2 | MND = 5
Mn        4.75348042179833    3.89678408629722    9.53996148353787
Cl        5.64385185007598    1.97540395446053    9.55780685289340
O         6.22605519725353    4.57566057810352    8.75011834997215
O         4.75854675729946    5.04594879062980   10.89099852255677
N         3.81401833964023    3.85507176546922    7.98636587140451
N         3.15171006259125    3.16606518125848   10.36174271950458
C         6.40415129054665    5.06078316095742    7.58568778628186
C         7.68529237235316    5.61878762830628    7.27760904919330
H         8.42379445868405    5.58876192152181    8.06496274845471
C         7.95401339994947    6.16218548170304    6.06898885836305
H         8.92628470837757    6.58327128010114    5.85708957024462
C         6.96498697009329    6.19228248702203    5.04744354442944
C         7.23090189168800    6.75283145045146    3.79707940886449
H         8.21003000199955    7.16991894468382    3.61069858595574
C         6.26617816609899    6.77893435688863    2.80517582849656
H         6.49308577171635    7.21676285553632    1.84427557045647
C         5.01653513325958    6.24594619634310    3.04443953906043
H         4.25820921394459    6.26306345133610    2.27510282727353
C         4.70991743685261    5.67198369307789    4.28341422058404
C         5.68547016782226    5.63474425975807    5.31156484349475
C         3.43474661825268    5.12252813155860    4.55593655272186
H         2.67893522193929    5.16451301174725    3.78468292643212
C         3.14797044992012    4.54847646891578    5.75312910043153
H         2.15707637384156    4.15229205259961    5.90058409600257
C         4.10170056712605    4.46981804535960    6.80997088126752
C         5.38503231621268    5.05772577277602    6.57322764813959
C         2.54560326028180    3.12556799465012    8.04892630807732
H         2.46477670062889    2.43281470446988    7.20424461857403
H         1.70956416459725    3.83812653126025    8.01954668852725
C         2.49041250941827    2.34289873153675    9.36549140786952
H         1.44557414891059    2.13980300838308    9.61491468914167
H         3.04136982224769    1.39983131840512    9.26655594544963
C         2.69536159736396    3.21987158807642   11.59606159379427
C         1.71033054133866    2.31981405901262   12.12786970693632
H         1.38382970342864    1.48999657918358   11.52181808349607
C         1.24546685484309    2.43249977313381   13.39165947385361
H         0.53648981820604    1.71170674930731   13.77409042842344
C         1.66566486214289    3.48289556056487   14.26193562471013
C         1.15563290217092    3.62629285311113   15.54652112967807
H         0.41548588081217    2.92420589474657   15.90220631145550
C         1.58377426836608    4.66115121158638   16.37068617112124
H         1.17396646915149    4.75630797323486   17.36526442060379
C         2.52067654950386    5.56172652453708   15.92162838845215
H         2.84841374944811    6.37193952126268   16.55661367212806
C         3.06881565944532    5.45031207943829   14.63167600726599
C         2.64391313878504    4.39335547695027   13.78634431222496
C         3.18629439436733    4.25082340798092   12.48809761920499
C         4.54788354830135    6.23805848251902   12.89280117549595
H         5.28791588593438    6.92797249999513   12.51483055177544
C         4.16684498485200    5.16635013691375   12.04647146542541
C         4.02525493873871    6.36885720856153   14.14426337828975
H         4.34240848737020    7.17887512431625   14.78512344200795

