78
CSD_code = SOWQUS | q = 1 | S = 0 | Stoichiometry = C39H33IrN4P(1+) | MND = 6
C         3.69667956751334    3.19850215247718    6.54247234159480
H         2.71824494688512    3.61476381823997    6.37137927838103
C         4.54774120088562    2.96354989310863    5.45994882602024
Ir        6.82182824433914    1.99889560418080    3.94794813552801
N         7.82844394285474    1.80546967759806    2.18295415856830
C         4.23440061211105    3.28397967819221    4.07738342339445
C         7.72447537832791    0.77259783402322    1.34568272988115
H         7.03464349805055   -0.01415430746598    1.62580119658815
C         5.02459264654155    3.35487808534918    1.81659083717886
H         5.78631384186887    3.17647676458961    1.06848943971629
C         3.02892757000612    3.86052944617230    3.67043842442150
H         2.24567034562139    4.06095965676888    4.38544014756423
C         3.83258760448522    3.93790878178292    1.41854351260862
H         3.68345094381778    4.20138109986328    0.38157722833329
C         9.39136419286991    2.79269500013312    0.66565885056434
H        10.04299894189469    3.61377075511458    0.41795419760439
C         3.70043854615640   -2.93648907391111    1.77471986313379
H         3.47585159584618   -3.99001092839116    1.84460543411738
C         4.74331605923621   -0.96927394573205    2.66930196877482
C         8.64973409512489    2.83249902364961    1.84858834061854
C         8.65548247800525    3.93692275105602    2.79261681867888
C         9.28362815631031    1.71374671467901   -0.18598495592980
H         9.84904696571965    1.67624760929221   -1.10368983730171
C         7.73522271665910    4.82747475790033    4.82031410204486
H         7.08669435061992    4.75658003944656    5.68320226240679
C         8.42226138494176    0.67913725054007    0.15990624734423
H         8.29127495519109   -0.17889669048281   -0.47877552465693
C         7.80582087068225    3.77658873851731    3.90919397285507
C         4.45139626973904   -2.32761079821952    2.76233724864440
H         4.80261933859665   -2.90225075814956    3.60818558142081
C         9.32677941379689    6.11538607128268    3.55714771438505
H         9.90815501574618    7.01528232032016    3.42955663502238
C         8.48237354238493    5.98137144353312    4.64924689427006
H         8.40418859236831    6.78171773167652    5.36991528224102
C         3.22928113635989   -2.19622099662431    0.70067173448003
H         2.63958912859536   -2.67705788170729   -0.06451763150868
C         4.26426101998482   -0.22712330507596    1.59488328322449
H         4.48149376191743    0.83147332314779    1.54027889341506
C         9.41190885898285    5.09940525171265    2.62895047746486
H        10.06249790798102    5.21638226806913    1.77614839460037
C         5.25449094892391    3.00855857116191    3.14334229252346
C         2.82921959226774    4.18098112849393    2.34444177906545
H         1.89843906544003    4.62736846767843    2.02965201610671
C         3.50712288814658   -0.84237009001055    0.61317106608288
H         3.13170139933308   -0.26364810012603   -0.21693514471375
P         5.69785758859219   -0.11271765920552    3.96100230814589
N         5.77376398014994    2.42386466653170    5.65727552066212
N         9.48119335120157    0.95924081735598    5.56200867667844
C         3.27321300519279   -0.11679024485300    5.26509957842893
H         2.89258229761846    0.19405264742855    4.30105386781010
N         8.18401163821090   -0.60203175790544    4.88089833169451
C         4.62806240734694   -0.41171238253200    5.40229748818158
C         6.17040243856327    2.16248165276522    6.90268450662398
H         7.16734812292558    1.76015199947931    7.01694277459367
C         8.33172924209937    0.74437009427542    4.89720904303664
C         7.10095882215324   -1.31101882940562    4.25115360349818
H         6.79402604640292   -2.15383493642384    4.87996396649958
H         7.42634809813425   -1.70960750719499    3.28057475185887
C         5.38290664861117    2.38608348759894    8.01205655921566
H         5.75571531435457    2.15909405533492    8.99712404790603
C         4.10739282454323    2.90367428938916    7.82436174069511
H         3.45627858688200    3.08136936276532    8.66574763391557
C         9.22732582804247   -1.21286341576423    5.52309314684272
H         9.30277866727458   -2.27604633071564    5.62225549197139
C        10.04602391042066   -0.22532892380945    5.95310185863008
H        10.96614444416415   -0.27023519095865    6.49766159002475
C        10.07510578876421    2.23697335214676    5.84767092515937
H        11.03993460669174    2.32357969383339    5.34662764940568
H        10.22964183598574    2.34663410045142    6.92179320497411
H         9.41756511287614    3.02699602784717    5.49131107084142
C         4.27069492443951   -0.89093910850052    7.72987827461806
H         4.66050954886832   -1.18987727457090    8.69136094297236
C         5.12633225153089   -0.77671468537638    6.64870310721491
H         6.18088835706951   -0.97401265421917    6.78552951783162
C         2.42456961413239   -0.22584725629441    6.34970973852921
H         1.37450063298612   -0.00462387803661    6.23470463444702
C         2.92130841943605   -0.61826697481079    7.58273178869463
H         2.25813211120177   -0.70837207049353    8.42907472160871

