89
CSD_code = SOWRAA | q = 0 | S = 0 | Stoichiometry = C36H46BFeN5 | MND = 4
C         3.37213667883303    6.69719256112371   13.76607723321715
H         4.34952159521913    6.34156535812724   13.43961486867658
H         3.03723449568242    6.05515306666945   14.58292788262410
H         3.46398617205712    7.71597886233169   14.12962912485025
C         2.41490656024730    6.61003060531058   12.62186143522941
C         1.81152972429666    7.72121583411026   12.05827190131073
H         2.01688304275870    8.70218328964785   12.45667725810960
C         0.94694204178923    7.56306934915571   10.98005121460652
H         0.46604798157520    8.41946749401762   10.53459128266119
C         0.72742198470815    6.29168155193618   10.48350606851402
H         0.08026020624869    6.12041524473076    9.63878993460653
C         1.36674891587628    5.21807737892066   11.09080763788993
C         1.31968993737755    3.84379236836817   10.67309440428843
C         0.77259093854959    3.11083400707753    9.61142809410351
H         0.12834314617161    3.48422782251345    8.84449947784493
C         1.25190466246194    1.82180661584131    9.76145773908626
C         1.00024778126959    0.64046723453390    8.86017733786316
C         2.32813911629619    0.01550431360925    8.40673251653817
H         2.14787551782928   -0.65590446180376    7.57041902645505
H         2.80482602771679   -0.55783685002820    9.19450328411028
H         3.01838216749244    0.79092440272581    8.08158013221202
C         0.11561167088884   -0.39577931876088    9.56848804075167
H        -0.83686183257819    0.05169228966565    9.84418146182139
H         0.57752982932248   -0.78587914666625   10.47062879960997
H        -0.07764520479643   -1.23122391597630    8.89978441058315
C         0.25544594077051    1.12029614329286    7.60736035104862
H         0.84122407578499    1.86495429450705    7.07477794412226
H        -0.71015476787249    1.54661024736624    7.86606144948735
H         0.08321965694080    0.27908509893177    6.94019974463746
C         2.80358186110090    0.77047874784486   11.49364821277273
H         3.81395954228294    0.78313424273222   11.06644049056524
H         2.33612440925741   -0.19018966609375   11.27943094112040
C         2.87936683101140    0.96837874687680   13.00921644599664
H         3.43604167008637    1.90174863351965   13.21052310320661
H         3.49410578277649    0.16574832311450   13.41820506712543
C         1.50966802269238    1.00099878069719   13.70058676622895
H         1.31714712950783    0.01911783731816   14.13004459548627
H         0.73245945007892    1.15128189051712   12.94521460956399
C         2.60959846500577    2.29097099749007   15.88213368595315
H         3.58579888503676    2.39128557814142   15.38047350219494
C         2.69405197763833    0.99184887998959   16.69473968204108
H         2.94964918303210    0.18918139029870   15.99938079844156
H         3.50704713297058    1.05493894540202   17.42721138147807
C         1.41120853108017    0.60585827722345   17.43432222138225
H         1.33034391023269    1.18739593041969   18.35097043143066
H         1.49344785812144   -0.44112855041876   17.74582631638730
C         0.13056017367260    0.76566313420931   16.61147727543679
H        -0.72597684323248    0.69999570704073   17.29234124141745
H         0.05186193064416   -0.07620437622332   15.92010527004699
C         0.04573834708060    2.05525746176859   15.78426975588016
H        -0.88208797154086    1.97888890618503   15.19740011191162
C        -0.11400733280487    3.30075681533879   16.67152032118070
H        -0.94578631905060    3.15330778714279   17.36945393491882
H        -0.39995770303330    4.14483421493009   16.03313232222695
C         1.12399460873104    3.68829142438424   17.48995304025811
H         1.14438483874354    3.09617953037714   18.40259631790718
H         1.01577632468831    4.73169526446156   17.81045821965745
C         2.46895109692633    3.53785498104679   16.76967885316729
H         3.26162717769932    3.55031663213828   17.52649460146018
H         2.63391165460345    4.42095505001025   16.13787983464941
C         5.11595541643131    3.48917619938451   10.80832574839926
C         4.50337418776988    3.60864825250687    9.56280752591946
H         3.53696469426956    4.07856685293527    9.46895696098596
C         5.16777002302676    3.13308831287500    8.45160810715376
H         4.70103254749318    3.21678993467850    7.47926766742577
C         6.43491780890878    2.55737801554977    8.54789045773962
H         6.92179312211453    2.19557974221231    7.65370223152955
C         7.07478231808250    2.46604431668360    9.76704794379245
H         8.06618057355872    2.04259114354134    9.84166663230299
C         6.42440267401638    2.93214838276954   10.90096831744639
C         6.77524240841876    2.99882499060759   12.28774565696726
C         7.89183895344191    2.64228314637726   13.03099844982217
H         8.75328686775149    2.20250092004546   12.54925294744225
C         7.88131899972138    2.86421822267934   14.39387194740013
H         8.74166540311007    2.59376153145292   14.98854676341455
C         6.77831224577650    3.44532068743784   15.02046225782524
H         6.80621395770992    3.61280164825737   16.08767435320073
C         5.66101526012661    3.81977163872683   14.30302588107666
H         4.81574043766199    4.29424465635351   14.79042021872568
C         5.65030792943679    3.58519208550864   12.92823586594544
B         1.36927849462373    2.19621540508068   14.82547615032133
N         2.18503921514911    5.37649536615968   12.15996372543494
N         2.07841693049777    3.03067742454023   11.41545264378520
N         2.03020382801662    1.82192131849697   10.87701071284594
N         1.27906470012662    3.53443077595072   13.98178766855268
H         1.12447567810079    4.29458088678180   14.63627118651118
H         0.42971913027903    3.48429056495347   13.42613397156905
N         4.65128203778286    3.87171597392089   12.03713269683099
Fe        2.91862546856290    3.83259834441573   12.90338590128200

