73
CSD_code = SOWSOP | q = 0 | S = 0 | Stoichiometry = C24H40BBr2N5Zn | MND = 4
C         6.03491070205412   -1.34846677610537    7.70919858905079
H         5.01078252540117   -1.68690158650101    7.58265715882335
H         6.19609869776072   -1.10998335717730    8.76130528571252
H         6.70723033852779   -2.16529692024917    7.44057665075356
C         6.31545177674370   -0.15612761896869    6.85909417323393
C         5.34571539765618    0.40172156320457    6.03241430043750
H         4.35797012495093   -0.02895826270831    5.99902247763304
C         5.66830686764915    1.50323715066180    5.25825274907789
H         4.93107365630245    1.94931889502559    4.60808662893808
C         6.94763769751635    2.02316194039914    5.32554254226600
H         7.23451743084544    2.87745046843227    4.73574435803125
C         7.87144940093328    1.41816935276030    6.17329092826775
C         9.23555498023387    1.89259145635983    6.29256040722397
C         9.90578394783316    2.92473624628039    5.62914026606829
H         9.49819575133720    3.57856579902278    4.88869916786700
C        11.20321905511128    2.91582989533087    6.12060505427871
C        12.34948431713695    3.79202844956116    5.68508307961795
C        11.82459510348581    4.84548053593769    4.70039574309505
H        12.64303904068167    5.48872557498023    4.38709143396990
H        11.06408468940942    5.46696109178404    5.16704023044013
H        11.40742848395366    4.37779347070234    3.81221732221967
C        13.39679320815336    2.93819240012576    4.95455596127464
H        12.94332376034623    2.42747855222537    4.10763133652230
H        13.84180167560943    2.18859069562024    5.60233698283833
H        14.19328187211426    3.57841602168500    4.58349186424957
C        12.98272182104368    4.53168545864288    6.87110829194432
H        13.67695127547677    5.28126753066322    6.49862505032046
H        13.53630900493033    3.86762573293937    7.52582845735150
H        12.21778204707178    5.03971586064292    7.45466859925453
C        12.29282201315505    1.48607704794930    7.93545527725357
H        13.27159781253272    1.75030230403822    7.54124531259447
H        12.23556546576348    0.39336383800663    7.99856753377212
C        12.08871774895650    2.08364874825392    9.33325846867388
H        11.06844695648980    1.86735287599232    9.65257103405882
H        12.19180951052825    3.16698799546862    9.28565763485779
C        13.09164911651215    1.51086088283895   10.33282101226945
H        14.09195794051478    1.78271177627032    9.99559846136631
H        13.04757225155048    0.41906146081472   10.26543858050580
C        12.56758610377542    3.57827743000070   12.09708145964290
H        11.72634254214945    3.94398489922413   11.49095441260982
C        12.19261304429299    3.89501655687774   13.55572499647492
H        11.17228993944014    3.53522271718345   13.73445806463347
H        12.15468092392994    4.98099499091091   13.69196285354557
C        13.12336597740722    3.31512031933697   14.62885919974880
H        13.95634232318616    3.99823614651662   14.78402112536576
H        12.57795719938140    3.28683719495241   15.57858016633550
C        13.67607317624384    1.91448482506461   14.34362909289197
H        14.53076408407335    1.75045867737935   15.00748365312046
H        12.92769204643264    1.16312031555886   14.60740980823344
C        14.09747344246899    1.66219403197395   12.88762217328717
H        14.40703501492751    0.61063186502363   12.84439369982367
C        15.33337095463484    2.48043261106342   12.48162577834600
H        16.14038469844610    2.31992942878898   13.20363994349296
H        15.68440491564016    2.09457273260750   11.52155384863765
C        15.10208693178313    3.98758754626869   12.34559659752912
H        15.94042891006486    4.41743802374122   11.78686952868621
H        15.12318320702071    4.45234135909400   13.32883883048198
C        13.80277512153296    4.36714375873144   11.63423652482419
H        13.63739132314974    5.44183955756548   11.76891205423721
H        13.92948286650981    4.19279833280178   10.56333443000423
B        12.86122152234321    1.99050681040709   11.88523471035086
N         7.54304558955753    0.35463818938300    6.91857687883985
N        10.08459094956761    1.30201438860996    7.13561385793723
N        11.25778975467828    1.91342123312324    7.02649290308345
N        11.53551788287471    1.17228152253524   12.39762520480315
H        11.24332771406720    1.61905304690237   13.26736719860973
H        10.79449169649536    1.31688591046328   11.70395812000103
N        11.72293757337663   -0.21780189701564   12.68092177190003
H        12.40594121966313   -0.58571166816090   12.02498817021215
H        10.84739509952442   -0.71669826595002   12.53392261602143
Zn        9.23491706840832   -0.45251015022920    7.88231562083960
Br        9.13384534603892   -0.22744391187137   10.22626727490298
Br       10.02682037060595   -2.19377507977906    6.51664902442227

