62
CSD_code = SOWVUW | q = 0 | S = 0 | Stoichiometry = C24H30N2O5Ru | MND = 6
Ru       27.16622628470376   26.84257286188453    0.77548447834422
N        27.71582454279531   28.85910621776980    0.85279745267484
N        26.63165795350270   25.02903758197812   -0.11949907868951
O        27.89037421032828   30.76777379688113   -0.29174814681709
O        25.97188373883116   24.02554300215100   -2.00133397213127
O        29.10193348624717   26.46388460572032    0.10831602516088
O        27.85499910761294   26.14934690639828    2.73289574810946
O        24.36870915850291   27.41529376106833    1.64008463929950
C        26.80699648478412   27.40904690810020   -1.05599519024988
C        27.11503447547816   28.71757437681828   -1.43453860723572
C        26.99794783322353   29.10557108161447   -2.77524973987812
C        26.59229778574761   28.13841680815223   -3.69155377738794
H        26.49339623148463   28.42956920048431   -4.72855247272822
C        26.34227859712522   26.80986552091782   -3.35720319708489
C        26.46820440043437   26.44720147506938   -2.01017061709405
C        27.31289335419832   30.50041668196229   -3.21152055513593
H        28.34698717486550   30.74467430378964   -2.97296155575462
H        26.68397261328861   31.21115665643929   -2.67808508310371
H        27.15805949153434   30.62048589228823   -4.28099384497885
C        25.96810273899672   25.80672731341040   -4.40065167018965
H        26.68416352698414   24.98662740035659   -4.40913397481891
H        25.93665673411195   26.26147318739226   -5.38774372892491
H        24.99269045469301   25.37867014698559   -4.17505254747075
C        27.58199104983078   29.46068033624758   -0.28607664744990
C        28.25658343793625   31.12310362353638    1.04011549634877
H        27.55235386398956   31.87792264623730    1.40204044996210
H        29.26288061761982   31.55013279928961    1.02031757160162
C        28.18269069331144   29.80363236412877    1.85369036424036
C        29.55509763581524   29.36542242064876    2.36856479573092
H        29.46771284396346   28.38391828824758    2.82912844379620
H        29.92805950979674   30.07255261704497    3.10597201218894
H        30.26483434595395   29.29749013488737    1.54565701352639
C        27.17126462247888   29.85566448886692    2.99812616190767
H        26.20448277453229   30.19806668443378    2.63499254609604
H        27.51692534532378   30.51996177372779    3.78631794962217
H        27.04780382238136   28.84943133860462    3.39773144631428
C        26.35707332356877   25.15168003671179   -1.37904285333515
C        25.94076378099845   22.98918609036096   -1.02192034897586
H        26.58656123340485   22.17419265873716   -1.35937170598586
H        24.91304999488112   22.62337119602950   -0.93902883183400
C        26.44378821591350   23.64749741617254    0.29029716455752
C        27.78203081984600   23.06523770833639    0.75000590057138
H        28.51789112846518   23.12853196434415   -0.04998115648225
H        27.66253395474309   22.02533739333850    1.04526480599710
H        28.14834569367837   23.63676179690294    1.59982571658653
C        25.41957410237263   23.59914911848348    1.42321923290445
H        25.77200111098794   24.23359500518135    2.23609747686010
H        25.29393849315412   22.58149297085340    1.78454551136439
H        24.45983795303062   23.98332779029876    1.08408184702504
C        31.37765311310343   25.84136777546916   -0.00210224449268
H        31.23989274339888   26.16293775774234   -1.03217324830875
H        31.68049609211890   24.79612950800877    0.01134190892239
H        32.16861837173523   26.43034917282991    0.45790372092335
C        30.07611587344849   26.01816725119468    0.76547321381936
C        30.10018438770927   25.66662934822573    2.11829381298795
H        31.03394901857449   25.29815745980821    2.51678262985578
C        29.01403151469111   25.75099228734272    3.00157114190365
C        29.26807126678851   25.30855979345619    4.43439329064703
H        28.37264736122024   25.47253666143903    5.02876845781514
H        30.09613465547173   25.86900503582467    4.86231174495165
H        29.52539646168549   24.25145390817314    4.45817391002064
C        25.45584839260204   27.18593769119995    1.32880071390161

