115
CSD_code = SOWWOR | q = 0 | S = 0 | Stoichiometry = C60H49O2P3Ru | MND = 5
Ru        2.85512741534144   11.21244895217043    6.81783134181638
P         4.91270568727951   11.43453813657043    5.84495026551185
P         1.51652789333346   11.81412412530821    5.03898880432015
P         2.78741944894081   12.98270999765366    8.25537256231290
O         1.16464625062881   10.25507297610615    7.46246176481228
O         3.71714728217209    9.74670061042540    7.95433127384258
C         1.44161721922676    9.30943671291990    8.31952762781560
C         0.45242499009178    8.57365314188744    8.98339863153760
H        -0.58522191975655    8.77778374070249    8.75939800699105
C         0.81710498042870    7.60019718608074    9.88877867803261
H         0.05132592806716    7.02676029690376   10.39205004625437
C         2.15760259312674    7.34759563902105   10.16575717018770
H         2.42115174069804    6.58299243326796   10.88271358214369
C         3.15498037129966    8.06189583501763    9.53571330020083
H         4.19983258790321    7.87024052926279    9.73911208021995
C         2.81667669994859    9.04166140786240    8.59649930282376
C         7.20915287017179   10.23566835073062    7.09924081639768
H         7.05115676330158    9.33762985043040    6.52036594865151
C         8.26788160676537   10.29698762774013    7.99119988696662
H         8.91785062391070    9.44110546646838    8.10580214808557
C         8.49881550761629   11.44336249118561    8.73061987255637
H         9.32585934484693   11.48245309862316    9.42442943595440
C         7.66803978914101   12.54275722666805    8.57704365014608
H         7.84517806310215   13.44106434694224    9.15075125908626
C         6.60840511117544   12.48210953097244    7.69566524895674
H         5.94251831423207   13.32812956169725    7.56839622411224
C         6.36667005898460   11.32800454230932    6.95235282173831
C         5.54196140555239   12.85418723432428    4.88411219000392
C         6.78883682860817   12.81452855559962    4.26580733238915
H         7.38326239475876   11.91189561349197    4.31212647933608
C         7.26328876540790   13.92999518059606    3.60375518642562
H         8.22722783593439   13.89685342393211    3.11654433698190
C         6.51209089385996   15.09598570243129    3.57331990200180
H         6.89245111054321   15.96648858628050    3.05893714208657
C         5.28569766273151   15.14680204921462    4.21145040189301
H         4.70559150289777   16.05779257931443    4.20851190099271
C         4.80304481464169   14.02555265654002    4.86277069787856
H         3.85023105378959   14.03828327969818    5.37480887305805
C         5.33460822916772   10.17850098741122    3.33088099531246
H         5.41041560071861   11.16635432620171    2.89992621866375
C         5.40398111942707    9.06223091404638    2.51468169290073
H         5.53948666952306    9.18781762963091    1.44984229934431
C         5.29722969707999    7.79106885959235    3.05220765189146
H         5.35132731828241    6.92432309551526    2.40974777231017
C         5.10987305713457    7.63410200902293    4.41664201732152
H         5.01804637177924    6.64417328004791    4.84081035336658
C         5.02828109294716    8.74510682297174    5.23411144995707
H         4.84928781217067    8.62821305303521    6.29706401943685
C         5.15715737744822   10.02958274885523    4.70229273711982
C         0.93528336594880   10.20573438638423    4.36986867599986
C         1.62547901117815    9.04816385156415    4.71111589287432
H         2.47887652870104    9.10707562563629    5.38569180772979
C         1.23746149775886    7.82011657628254    4.20881666128710
H         1.78290875415483    6.92899089611502    4.48453433033315
C         0.14796713702061    7.73714497416815    3.35865698980495
H        -0.16309536732844    6.77888371267372    2.96883970204224
C        -0.54585594382580    8.88565029292034    3.01223946868372
H        -1.39802967232731    8.82213464852030    2.35073345154783
C        -0.15568807647035   10.11493290799227    3.51069417334507
H        -0.70312596911747   11.00560497067654    3.23676140959474
C         2.14719239943636   12.55807149305037    3.49295792590741
C         2.67540166702594   11.75405642768697    2.48872453647104
H         2.65942215806203   10.67812155491157    2.59677296224197
C         3.21863475632011   12.32274695830863    1.35052332666576
H         3.62379078526688   11.68696842211564    0.57630749008120
C         3.24119429948384   13.69844764012286    1.20026206999605
H         3.66271392544808   14.14028831445810    0.30941364800635
C         2.72133088578996   14.50634499207642    2.19814936619985
H         2.73571705620085   15.58070441359299    2.08511068052943
C         2.18678627614269   13.94206323534879    3.34039699928512
H         1.79421302786411   14.57655801222479    4.12199814504509
C        -0.10828540221833   12.63669134557991    5.24061424145867
C        -0.74217848110895   13.37748326945678    4.24616020639570
H        -0.27074356204439   13.51995251214207    3.28391022471195
C        -1.98416261188059   13.93853161433055    4.48663934310603
H        -2.46743906670378   14.51568961602703    3.71092413025872
C        -2.60999033425576   13.76022350221254    5.70949265026603
H        -3.57889646194219   14.20288296555749    5.88950627725095
C        -1.99275347158319   13.00791030889453    6.69510862515387
H        -2.47781534137857   12.85565772995349    7.64814398059689
C        -0.74901086439149   12.45076456148390    6.46260976173796
H        -0.26289349246136   11.85712322424878    7.22406434386165
C         2.90797443116516   14.70317928969428    7.65836743090136
C         3.98923880780280   15.53430698003259    7.93090162540876
H         4.78278867585836   15.19487064070796    8.58104863150782
C         4.05292012142384   16.79908686803176    7.37258636644732
H         4.89735364002368   17.43714692887836    7.58965959331677
C         3.04274646641052   17.24860393414969    6.53925577812604
H         3.09220549443324   18.24030525720772    6.11369410930164
C         1.97391856904587   16.41708308394643    6.24173022823242
H         1.18815933852419   16.75886920549686    5.58215103524947
C         1.91635453815390   15.14758543706434    6.78449355502815
H         1.10938317431657   14.47281426580011    6.52490899147904
C         1.24390594228313   12.98152121092990    9.24493571884707
C         0.25501147639390   13.95684712059754    9.24020109652423
H         0.35951416829684   14.84415817883229    8.63374461095537
C        -0.87445491319193   13.79916192210626   10.02594079328129
H        -1.63787367142727   14.56442603208675   10.01818160569705
C        -1.03173562132241   12.67202460936755   10.81365159384146
H        -1.92194797520728   12.55008666012970   11.41355806698794
C        -0.03871004990805   11.70519951998145   10.83875627590382
H        -0.14735951504930   10.82598753062828   11.45674327632624
C         1.09577199663354   11.86611352158937   10.06947147557100
H         1.88100885482054   11.12063722254808   10.10286242402099
C         3.89617718884583   12.97542016886466    9.71414215480506
C         3.80062405231712   14.00390323897775   10.65049815639427
H         3.11146898420424   14.82071580273925   10.48091545324390
C         4.57753664813026   13.97515365370492   11.79195209845794
H         4.50593538606851   14.77863554466897   12.51106006399284
C         5.43932513361037   12.91280446926777   12.02170453267229
H         6.04344612220392   12.89345370327498   12.91717810766367
C         5.51146181520564   11.87338812302182   11.11171270211276
H         6.16839805248419   11.03575837401771   11.29490482625664
C         4.74181726313363   11.90296670484203    9.96103152821474
H         4.78745015523184   11.08734743747056    9.25300919259822

