67
CSD_code = SOWXEH | q = 0 | S = 0 | Stoichiometry = C31H26N2O3P2PtS2 | MND = 4
Pt        6.09089272480088   10.21036713510206    3.92930979719632
S         4.92455958099440    8.72819073789057    2.55439016405929
S         4.72434451618150    8.99410409960468    5.37613072902530
P         7.23011450010146   11.42511431577542    2.33419656355677
P         7.29803758094590   11.41395569985867    5.48717539230394
N         1.76828695190986    5.67703078174361    5.20702762108693
H         1.35681978606998    5.37526657293540    6.08204304174102
N         1.94124508730716    5.45446040211393    2.91880576698512
H         1.65925218900670    4.98603321545621    2.06612869945605
O         2.95973147610184    7.20741616998116    6.36320112458354
O         0.54970634857233    4.11388590411097    4.10552909663737
O         3.30366360181421    6.76152130288612    1.68018999509113
C         4.18257088199603    8.14954499355781    3.98704924942978
C         3.25391209482653    7.12062569825158    4.01754106756178
C         2.69108030365739    6.71733518253098    5.28167019758752
C         1.35713051475610    5.01227888069822    4.07914310024051
C         2.87549371529510    6.47825176905705    2.78416015116079
C         7.99796622354453   12.85804163133056    3.23166056865190
H         8.73654423573971   13.36560404362277    2.60535968484741
H         7.17936508005510   13.55845534154315    3.43088024959692
C         8.59450442324851   12.35981080953712    4.54627525448231
H         9.00248595310002   13.17412011753355    5.15060831061623
H         9.40041602772441   11.64586745783380    4.34504785667622
C         6.08394777971956   12.24062555123345    1.19661953296017
C         4.78069542970502   12.39999510826102    1.65912718921941
H         4.52364473814705   12.01401242139065    2.64479460106718
C         3.83529838754769   13.01725547794544    0.86348900048866
H         2.82182960951967   13.13490602783771    1.21630689975820
C         4.19038762516522   13.47307305275103   -0.39702489260528
H         3.45157791240905   13.94794481577420   -1.02520385718515
C         5.48683442068344   13.31288335669376   -0.85972198487570
H         5.75542665847800   13.66485434401553   -1.84482656490553
C         6.43887121181945   12.69675147551166   -0.06690938220306
H         7.44886775381866   12.55947822488597   -0.42726869099737
C         8.50302101873804   10.71188122611761    1.26118932090088
C         8.05082176893291    9.70156773638712    0.41128391501258
H         7.00394821628724    9.42643773942075    0.43462603389802
C         8.93310026556178    9.06245029529795   -0.43663291666103
H         8.57920179100441    8.28493026904076   -1.09642668855662
C        10.27463526259101    9.41575735193133   -0.43243551640364
H        10.96690144522349    8.91610503926973   -1.09339474395392
C        10.73020600664342   10.40213859554837    0.42590036667056
H        11.77695716406343   10.66906232181261    0.43499246168610
C         9.85084930447614   11.04959157059553    1.27745156252093
H        10.22140436557687   11.81342812569003    1.94554807777910
C         6.59321764926248   12.53305269730700    6.72296201850786
C         6.71551420494134   13.91733184630705    6.69848031530659
H         7.29514825753616   14.40593611972572    5.92851171745866
C         6.08781544871861   14.67885899339653    7.66953475662409
H         6.18951973765135   15.75421381198984    7.65440506780698
C         5.32873773515915   14.06882446596450    8.65397415790691
H         4.84238309952662   14.66933922394072    9.40800336717097
C         5.18209605498905   12.68940722677743    8.66446336156233
H         4.57693935246870   12.21427343572385    9.42154216657405
C         5.80418312399643   11.92325840989617    7.69911022268191
H         5.68323755844119   10.84789420630851    7.68154399609530
C         8.30082896090691   10.24820907216475    6.44291161608164
C         8.86389405832613   10.53866236076086    7.67951217399308
H         8.69273881618728   11.50242964487680    8.13835926511141
C         9.63056321780680    9.58146425027663    8.32050521781157
H        10.06616719900865    9.80051124981213    9.28418646520855
C         9.83625158628175    8.34311234401190    7.73349798103229
H        10.43016820722968    7.59934518317696    8.24338787150367
C         9.27562085814730    8.05224796627685    6.49910177962714
H         9.43051711564815    7.08367222497851    6.04813947131863
C         8.50851183980910    9.00324144836795    5.85495859597341
H         8.04289398366078    8.79200142748941    4.89090100825910

