31
CSD_code = SOWXIM | q = 0 | S = 0 | Stoichiometry = C11H14Cl2N2OPt | MND = 4
Pt       -0.20572994276369   14.51036871367318   10.99903398054999
Cl       -0.09511358850572   15.58204112985787    9.04991978038622
Cl       -0.69722523729504   12.62994996958777    9.91074970404039
N        -0.21994263173321   13.64937724209524   12.82077118956878
C        -0.44472848244507   12.37071153623274   13.11779255749375
H        -0.66684987476043   11.72649981532743   12.27627164076772
C        -0.39817405781280   11.89463837505274   14.41499370631201
H        -0.58635880966749   10.85088780310038   14.60693123813209
C        -0.10867575126480   12.77068954490017   15.45805596572574
H        -0.06847316203777   12.42012747310148   16.47732965642153
C         0.12707005113458   14.09911093128566   15.16117658049177
H         0.35698095548406   14.82770312409694   15.92181518273469
C         0.06542150376180   14.50664194136187   13.83115936738873
C         0.27916237392864   15.85873386180296   13.38145987501921
O         0.52632849555729   16.88499081793189   14.20171591264419
C         0.64750606973781   18.04698488612554   13.37233180743245
H         1.65228097533383   18.45586716342355   13.50158211841885
H        -0.08534273801133   18.78099237696511   13.71255617359696
C         0.38361390706667   17.55274436055650   11.92712280898800
H         1.25052062244582   17.72180157828350   11.27975834200963
N         0.21742827866640   16.12653251515023   12.12016221774291
C        -0.85160186275760   18.16362239912043   11.23236802405154
H        -0.88303203442421   17.71347350626867   10.23520502050124
C        -0.68803937113603   19.67254886413025   11.08167190978416
H        -0.69503515030313   20.17683223178785   12.04595252837933
H        -1.50603319795427   20.06974470391394   10.48704391262466
H         0.24506350539550   19.90718776343617   10.57564983216336
C        -2.14751719107506   17.80188149277249   11.95333478876235
H        -2.29855014864627   16.72148735436542   11.93490896442310
H        -2.98870408647937   18.26531183499237   11.44541983182341
H        -2.14684941944035   18.13981468929896   12.98865538162162

