98
CSD_code = SOWZUZ | q = 0 | S = 0 | Stoichiometry = C30H58N2O3P2PtS2 | MND = 4
Pt       -0.88449173381905    3.71345486365545    7.32026220660323
O        -3.11765594407304    0.22263301538816    4.59316448376067
O        -0.20510548979289    3.19953820968532    2.39553423271380
O        -2.29679678213181   -0.10646270336454    0.14166181142875
S        -0.36261172886319    3.77159499403269    5.02977744848298
S        -2.11271230447157    1.97192488001362    6.33629453504280
P         0.46511945986234    5.60243625745806    7.62209254661977
P        -1.64046765167376    3.20974730969888    9.47136406717357
C        -1.40398522575693    2.42881343613367    4.85102234460971
C        -1.63684603163255    1.78690597046192    3.64340018201663
C        -2.53096695086602    0.65868887135939    3.61523275249931
N        -2.71527357210153    0.04774411929817    2.37461003567626
C        -2.11342113095974    0.44551484287395    1.20441931898109
N        -1.27481194143787    1.52767528621860    1.31366922229335
H        -0.82681492105555    1.82477741532526    0.45496043195440
C        -0.97388433075474    2.25584442628541    2.45797347134902
C        -3.61156979808593   -1.09266329012235    2.33646629583281
H        -3.64704638260110   -1.45776863621590    1.31327355616099
H        -3.24279599377359   -1.86899392647496    3.00733817214504
H        -4.60450748755886   -0.78871952352512    2.66870633247781
C        -2.68388916997145    4.41933075497149   10.38793925019832
H        -2.10907649366727    5.34665754699718   10.46468912722804
H        -2.86915491511843    4.04784970330787   11.39756174124324
C        -3.98212105539120    4.67556652261021    9.62578274054379
H        -4.62008860133376    3.79190141376468    9.67776101875777
H        -3.73353130731599    4.83881730751048    8.57281833032043
C        -4.75683525544484    5.88195907557728   10.15381289346776
H        -5.59884777173874    6.07363968109443    9.48573632651335
H        -4.11239954663970    6.76421437756389   10.13657134875293
C        -5.28637815153372    5.67136936704760   11.56795480967843
H        -5.89275654922534    6.52034275574699   11.87423611852694
H        -5.90519852319025    4.77786708733827   11.61287441518876
H        -4.47187684725818    5.56449774344958   12.28025866963410
C        -2.61004582555376    1.64775630092499    9.52042985119298
H        -1.93704114358121    0.86805289019886    9.15095918679519
H        -3.39819031712249    1.74894462282316    8.76882099872320
C        -3.21025183163409    1.23869287410932   10.86163547181613
H        -3.93830543418891    1.98173349132108   11.19184026811541
H        -2.43215227151181    1.17027828487460   11.62502536835779
C        -3.90885045041380   -0.11608766565078   10.74887266991189
H        -3.18448564263446   -0.87147429797909   10.43804973099109
H        -4.67771715102122   -0.06082371445093    9.97595911242915
C        -4.54336240163090   -0.53386844636333   12.06987549494361
H        -5.03525380009924   -1.49773736350220   11.96802932137781
H        -3.78854492075845   -0.61548048615147   12.84941867326000
H        -5.28480130641093    0.19659717986466   12.38699523439170
C        -0.25095616782702    2.90387618971332   10.64220278183366
H        -0.60004417472138    2.37264176634680   11.52987208401673
H         0.13103077606044    3.87696797749152   10.96108742460536
C         0.84264212694594    2.12029244567434    9.92019037081241
H         0.99570962892284    2.57643559134710    8.93054316158120
H         0.51158485834319    1.09295250275091    9.75922449730796
C         2.16233760322703    2.10976330924958   10.68561655757192
H         2.00385705884418    1.67615181431898   11.67620438102018
H         2.50800258093605    3.13703227765541   10.82772260109987
C         3.23043052266364    1.31373068269495    9.94648403792041
H         4.17114425007635    1.33419514779949   10.49135566421728
H         2.92274298158073    0.27697275570297    9.83386738352575
H         3.39507926124619    1.73031647544965    8.95623313391816
C         0.97255026656166    6.25807869362325    9.27928804327768
H         1.37941159768945    5.41699701366578    9.84535990575930
H         0.04706641503740    6.56693017162134    9.77521154205904
C         1.97468929488712    7.40834390571763    9.27863524094477
H         1.64951354584921    8.19549799463206    8.59537877217225
H         2.94739865003537    7.05022488198240    8.93868162984732
C         2.13291968234104    8.00210351770526   10.67849954267315
H         2.44307395178099    7.21647498590958   11.37161823004803
H         1.16883867029694    8.38472957600621   11.02175998001877
C         3.15964375809291    9.12794028576100   10.69724299149937
H         3.25383184975280    9.54167545478036   11.69799460988838
H         4.13490411352443    8.76145869691520   10.38498693244946
H         2.86267790525325    9.92762708279928   10.02241128209390
C        -0.43566292982866    7.00013621841202    6.83250720505799
H        -0.26834688221419    6.91140542329594    5.75592379697848
H        -0.04934128764375    7.96524673774882    7.16736467606595
C        -1.92919120576338    6.86954242769400    7.12387595537985
H        -2.11303465734463    7.01366433942004    8.19155789627454
H        -2.23469981854050    5.84285138277067    6.86483325244206
C        -2.76984534266166    7.85817619028792    6.32263168704935
H        -2.58430472208396    7.70363663428444    5.25803727805064
H        -2.46498429932814    8.87869087050774    6.56869173872387
C        -4.25735749310668    7.68910582447864    6.60608936120253
H        -4.84096715872170    8.39173843899503    6.01662722337669
H        -4.57850380629039    6.68114315191347    6.35427310909087
H        -4.47008437432589    7.86400279714598    7.65850821392415
C         2.01978294502040    5.53974190614152    6.64758657632314
H         2.57825734179288    6.47220024241752    6.75668142902276
H         1.71829204845515    5.43811606260452    5.60143428955899
C         2.85623034427248    4.32685644726848    7.04384737103183
H         2.22579880615296    3.43606778670031    6.94850459172910
H         3.16970120583322    4.40962663246964    8.08810039175938
C         4.08340379851638    4.16943297936857    6.15024133103840
H         4.70522536309677    5.06516621458845    6.22665932224357
H         3.75614335389971    4.07892199257624    5.11295390677614
C         4.90827215082890    2.94539232199110    6.52843868393573
H         5.77404344655006    2.85300574695901    5.87754848232038
H         5.25942108130566    3.01957262124929    7.55609267618312
H         4.31157370979030    2.04116458605955    6.43148515287190

