190
CSD_code = SOWZEK | q = 0 | S = 0 | Stoichiometry = C80H99ClO6P3Rh | MND = 6
Rh        6.43812513078305    4.60168496615430    3.71011413678090
H         7.47807941343028    5.30405658240273    4.53522955257514
Cl        4.64251935331373    3.67772169281190    2.48878467788465
P         7.16989067939001    5.80012309839404    1.93595528220107
P         5.14774207327001    4.02555433294625    5.48438669046167
P         7.81410900182644    2.70464324822634    3.53325279451188
O         8.73100703713404    6.18975343972575    1.96830319879166
O         6.81442895018648    5.58244640139378    0.38546626548988
O         6.44175258990115    7.24314786010860    2.07293579555938
O         5.46085088140681    4.14867128606103    7.07028970557475
O         4.32608017784675    2.66914494838383    5.40404796722392
O         3.97001353468777    5.11864129085007    5.51557195172767
C         9.15540625528812    7.34703583075531    1.31893433168831
C         9.09114900270100    7.36645712571396   -0.07167770365975
C         8.74891468168179    6.18955641697844   -0.90069433019224
C         7.61594656289617    5.39740581848672   -0.72101018121949
C         7.21814575087798    4.48863552649365   -1.71604915499057
C         8.08976069247575    4.28970325296709   -2.77644208147091
H         7.82105056105317    3.57526904301101   -3.53322972432068
C         9.29786675762945    4.96559057469349   -2.91824583266065
C         9.58821514545703    5.94394316780438   -1.98785269898417
H        10.47954191308600    6.54363726794547   -2.07032077204532
C         9.42999262321847    8.53483170177202   -0.74480209329085
H         9.32919559397990    8.54521386884868   -1.81878958288538
C         9.85942612520934    9.66320380746037   -0.06572673382614
C        10.00504468864915    9.56838153029419    1.31095353284119
H        10.37994875565612   10.42028739059871    1.84507366343983
C         9.67574661802335    8.42705055362291    2.03678732502779
C         5.86457314979515    3.78738428921871   -1.68125510406917
C         4.75121095873827    4.82262984167698   -1.46091931309486
H         3.78091518388228    4.35141188846438   -1.59999785796201
H         4.84551748474502    5.64128063645417   -2.17271642621507
H         4.78038736603576    5.22595851387516   -0.45546385917623
C         5.84395718127680    2.74636379949766   -0.56104462396555
H         6.56546952756763    1.95840304602908   -0.76352112195419
H         4.85362485157653    2.30517325332408   -0.48143737283392
H         6.07941546728001    3.19453194666457    0.39758422950482
C         5.55236032165712    3.06084778744533   -2.99668942694440
H         6.24301767990847    2.23937728318719   -3.17529200933737
H         5.57466930856800    3.74513553614739   -3.84246775190866
H         4.55276056639338    2.63662260808756   -2.93291036311965
C        10.20457904205747    4.64292083141151   -4.09649939050938
C        10.59978827786458    3.16105430981166   -4.03718707283700
H        11.23130154659279    2.90738962448633   -4.88622116004921
H         9.72436312702262    2.51814844956258   -4.05929106845392
H        11.15371562284050    2.95592523845004   -3.12343034138584
C        11.48786570993324    5.47843239864311   -4.09581718087229
H        12.05920350343653    5.31913799712595   -3.18426779623368
H        11.26544317671408    6.53817203319987   -4.19539943871192
H        12.11101433037696    5.18678231265962   -4.93888550236211
C         9.44986406492632    4.92587130482157   -5.40302792130560
H         9.12876059682734    5.96483073463656   -5.43412945757692
H         8.57060424073371    4.29523451233775   -5.49760667079493
H        10.09660514204464    4.73861060969787   -6.25769186160082
C        10.17346576605789   10.93091260606394   -0.84621709849296
C        11.27780408651581   10.63019383493001   -1.86945217961647
H        11.53601546538772   11.53328556195495   -2.41834732360905
H        10.96001399507124    9.87774680017866   -2.58555638166979
H        12.16987279498556   10.26627504993751   -1.36385440983033
C        10.65231174555194   12.07739184193403    0.04831191688536
H         9.89500028262102   12.34413426304839    0.78153500080750
H        10.84935506259652   12.95504582660064   -0.56408548344659
H        11.57363545735768   11.81519716792672    0.56322422202134
C         8.90160383073244   11.38960757481871   -1.57290015178673
H         8.11004049471813   11.58770414431863   -0.85356143266722
H         8.54762677235806   10.63242316327275   -2.26675935511944
H         9.09687818382542   12.30197336671313   -2.13256825682590
C         9.90335131654108    8.37563379112120    3.54564235730788
C        10.67841822827910    7.10309654550479    3.92041676881123
H        10.10754719520075    6.20595944857154    3.70666640315304
H        10.90556927089665    7.11023641974746    4.98462757656992
H        11.61574539109997    7.05651646913549    3.36881587702115
C         8.55486454721562    8.40663367325132    4.27519404807551
H         7.94647296019143    9.23573705877853    3.91924248455857
H         8.71350893786862    8.52686383554781    5.34468985720776
H         8.00414505179659    7.48417023570659    4.12190012937367
C        10.73004007472882    9.56885435220408    4.04597797625444
H        11.67838166107811    9.64134424160334    3.51809337825619
H        10.94500522638966    9.43046504275622    5.10361839211469
H        10.18553247833345   10.50437822409182    3.94293010772989
C         5.25063769986999    6.21993083818214    3.84899803303348
C         5.41291795934539    7.29916054487708    2.99247324860981
C         4.55691102409901    8.38793538001822    3.02930661038131
H         4.71352260721435    9.21226569318545    2.35205627642883
C         3.50121063291064    8.37891125541547    3.92662878254081
H         2.82553260194331    9.21917691271683    3.96076502084592
C         3.28748530821326    7.29712792588320    4.76547192156474
H         2.45302392904890    7.26937785451522    5.44755323976834
C         4.16448183419903    6.22586280795367    4.71229871814858
C         6.46749021264604    3.38978941744558    7.63422315971104
C         6.37610665886831    2.00005536691693    7.55450746570032
C         5.11153644047936    1.29076600627762    7.24544652575130
C         4.13393066537634    1.65769671301276    6.31862229153392
C         2.91793361384015    0.95483348856944    6.22487026162548
C         2.76286579467922   -0.16736997492071    7.02137086431384
H         1.85430428368909   -0.73620291540610    6.94577963343532
C         3.71938341483346   -0.58449889213146    7.94004701759667
C         4.85870659753491    0.18076918755501    8.06035715269927
H         5.58285009735780   -0.05278722625763    8.82032650339828
C         7.46228110479711    1.24583324676872    8.00630047603692
H         7.41730050189847    0.17968795974543    7.87658716535327
C         8.55811334020969    1.82922698566619    8.61129855519310
C         8.53433969671645    3.20813572244312    8.80141749965153
H         9.34460314515293    3.65849524355137    9.34576894849188
C         7.51444994069179    4.01864183616239    8.32399458061198
C         1.77473482066591    1.42561285327806    5.32672468113446
C         0.52453393476921    0.54442814682213    5.46630700255810
H         0.71677472031601   -0.47751121229945    5.14611480199886
H        -0.25885901121006    0.94609301751335    4.82689305367872
H         0.14892003455064    0.54124954456901    6.48750946786357
C         1.36749844277335    2.84648148753584    5.74428596561781
H         1.12591363304739    2.87311948869213    6.80600570819555
H         0.48989387321121    3.15751860500846    5.18147095056038
H         2.15742649652484    3.56191372484986    5.54987610683048
C         2.17799667198211    1.40094038337696    3.84825926379374
H         2.99771118221913    2.07681708169528    3.63775726399339
H         1.33225197987429    1.70510246030712    3.23516821004304
H         2.46722023315312    0.39454166889739    3.55245960082863
C         3.46017772799644   -1.82598565985707    8.78028228535897
C         2.20341928774970   -1.60487647617037    9.63289301548429
H         2.33355127474433   -0.73542101308944   10.27359362954858
H         2.01796422074007   -2.47342779655672   10.26143138975556
H         1.32762833452040   -1.44159100110407    9.01141790692454
C         4.62479760511585   -2.15463947319403    9.71849665077556
H         5.54204020949021   -2.31913451516576    9.15761376171216
H         4.39977238390821   -3.06471106424624   10.27111580366696
H         4.78507375755075   -1.35631059330788   10.43921507426333
C         3.25044208949347   -3.02567254260610    7.84599913066182
H         2.40170719056262   -2.87242286303232    7.18595291000673
H         3.07063739517196   -3.92740365532025    8.42771786429167
H         4.13533869750832   -3.18137775344274    7.23285217461796
C         9.70892023241831    1.01250602332209    9.18330356828604
C         9.63455863281345   -0.46543240073332    8.79052825880741
H         8.74612882283849   -0.94043617154900    9.19947438874774
H        10.50252294994003   -0.98940204786084    9.18607743010555
H         9.63631097122682   -0.57614492005423    7.70915827131532
C         9.64826494538898    1.10850355818561   10.71517241484793
H         8.69404701811705    0.73320667889808   11.07879926333257
H         9.75797212833596    2.13666359865420   11.04888094750784
H        10.44512186399421    0.51675156196415   11.16071516480457
C        11.05214118357940    1.55953304517180    8.68583901345547
H        11.86804300003585    0.96027878156032    9.08480004101906
H        11.20730311239186    2.58716482706497    8.99974163179024
H        11.09491240808049    1.52366446656451    7.59981575596096
C         7.46966467226165    5.51112384616517    8.64527438744607
C         8.63705828613408    5.95013668917637    9.53865004746083
H         8.64032199721193    5.40876211045215   10.48194042179357
H         8.53043325700698    7.00931340061537    9.76386417630271
H         9.59401160583360    5.81346113429975    9.03973293956407
C         6.16975064795853    5.79520789879167    9.41402293736888
H         6.11995345709991    5.17833981839918   10.30966793428419
H         5.29961718723660    5.58524875273518    8.80106425891738
H         6.13514437374347    6.84128012332776    9.71138209375587
C         7.51954615609401    6.37124048041863    7.37719903574457
H         7.47964541256205    7.42441557775167    7.64937191864261
H         6.68060479414756    6.16900544798825    6.71774895279070
H         8.44319465155840    6.19371956628904    6.83038227139348
C         7.20668103746242    1.12001257727090    4.20806771652858
C         5.93380381215138    0.70734449883159    3.81747315911624
H         5.34428954800582    1.34108380635003    3.16814586447499
C         5.43208702425905   -0.50247091345087    4.25907951313080
H         4.44445168478766   -0.81786387925718    3.96007852141702
C         6.19706958892398   -1.31456561389658    5.07936227262189
H         5.80581406698878   -2.26212575778428    5.41943844428567
C         7.46702810406111   -0.91399553751804    5.45592812674856
H         8.07088445860277   -1.55810674276391    6.07988599213572
C         7.97198836638219    0.30286791862095    5.03071159142148
H         8.95998364760125    0.61670877496589    5.33679052791225
C         9.46280702423733    2.84795826708307    4.32339253738724
C         9.55986930432140    3.58502279949774    5.49852054377434
H         8.66321674108370    3.99990259123389    5.93507060627392
C        10.78538663092364    3.79466419037495    6.10100203434522
H        10.84555904191698    4.38635532316254    7.00200494849360
C        11.93246290907391    3.25097663599509    5.54735775983611
H        12.89349616742534    3.42092526191750    6.01007250070709
C        11.83962371509943    2.47834593856214    4.40185380698386
H        12.72775929628024    2.03440819795088    3.97573685156990
C        10.61475933477681    2.27653460662851    3.79046931320915
H        10.55996044977657    1.67471925625103    2.89508909228437
C         8.34883240483451    2.15722433569303    1.86835305047661
C         8.09610613491185    0.89585482471338    1.34419063024666
H         7.50999117399399    0.18015868360162    1.90057118607284
C         8.59780369587640    0.55063097349506    0.09971805263685
H         8.39888587872660   -0.43400929975777   -0.29878646959365
C         9.34879538757422    1.45511907335252   -0.63084771911600
H         9.73733398742021    1.17978362728351   -1.60000638465789
C         9.60015705101925    2.71650449317888   -0.11458849081914
H        10.18370783022503    3.42903520591105   -0.67771377652455
C         9.10300444617227    3.06341860723410    1.12589825152969
H         9.31767573778445    4.03650785488952    1.54464425149739

