33
CSD_code = SOXBIT | q = 0 | S = 0 | Stoichiometry = C14H11ClN3O3Re | MND = 6
C         6.00136180936114    8.38692205248544    7.50015877475229
C         7.21919229872136    8.27742040275857   10.05840905993208
C         8.88832752929241    8.24200917763505    7.90474792981848
C         5.03800171184165    5.90148507039302   10.03738244115327
H         4.93792014743660    6.89218418583710   10.46284830462188
C         4.34174427593903    4.83599292905142   10.57611439526790
H         3.70243749006809    4.98433448830786   11.43113026364063
C         4.49629787163718    3.58617895958517    9.99620491456902
H         3.97879905477635    2.72411662375446   10.38863121387177
C         5.32574857270327    3.46482195145140    8.89868904758226
H         5.44773640574173    2.50511529090532    8.42526488594574
C         6.00390218773780    4.58378839547366    8.41503175947664
C         6.87585802992718    4.53116427366739    7.23103693002879
C         7.20012617061165    3.34021613257677    6.59797722902049
H         6.86939404044132    2.39296000413483    6.98597756991191
C         8.00697764146208    3.37928172958626    5.46742646383324
H         8.30288035069686    2.46147351297780    4.98250174459672
C         8.41150970430604    4.59134546731762    4.96729350280527
H         9.02109201604128    4.65090394064812    4.08252928436199
C         8.03255867594114    5.77038992737476    5.64009590429931
C         9.24198958546382    7.22709499341566    4.05237708011746
H         8.86061390833761    6.79390926107602    3.12420242171196
H        10.23276557846946    6.81081729359667    4.25668663037277
H         9.34020561945838    8.30029924108752    3.91550207449914
N         5.85405764127636    5.78798651280923    8.99363582643843
N         7.32024050484729    5.71960374218565    6.77905757797660
N         8.33115628384494    6.98662541954199    5.14198160631330
H         8.05104684630167    7.78002701379572    5.70368790758375
Re        7.28641636674142    7.25149547039328    8.40585617335462
O         5.23254800947740    9.04451771644853    6.94907186009518
O         7.19444528154570    8.80127036807168   11.07565751723709
O         9.90505728713312    8.71028717789204    7.65542259945261
Cl        8.76479110241289    5.67196127376136    9.38780910535081

