51
CSD_code = SOXJEU | q = 1 | S = 0 | Stoichiometry = C20H25FeNO2PS(1+) | MND = 8
Fe       -1.20016854228412    8.22849361543274   12.30340501400231
S        -0.57249471970508    9.28082951431559    9.11785393999885
P        -0.88471247907259    6.75996516120527   10.76877150670050
O         1.60196067216032    8.86028532946701   12.57637981657462
O        -1.46778758185720   10.77424018320124   11.25261287035076
N        -0.71531189962577    6.88051826256146    8.03522009881589
C         0.50169422195502    8.58725358668975   12.46208441508241
C        -1.19834655199390    9.65328661457409   11.12825863738563
C        -2.11259846282279    9.23538657093533   14.01985639809185
H        -1.92760121301293   10.22974463435290   14.38997564344480
C        -3.15517196450076    8.86406517753806   13.13872442266322
H        -3.87318579072780    9.53437199958859   12.69773901826152
C        -3.12880045851669    7.46420723229822   12.99772329634995
H        -3.85953387711473    6.86315305818820   12.48192545536079
C        -2.09587708874714    6.95432315702825   13.84354455192387
H        -1.92971839283519    5.91389378625589   14.06571610430489
C        -1.48177670544411    8.04721588602001   14.47993383540307
H        -0.72263962858335    7.99402303609980   15.24238359159409
C         0.79479692321404    6.01803940628481   10.58311133430402
H         1.17621218272951    5.70656790947193   11.55233786205794
H         1.45911753484293    6.79556780815474   10.20065435653696
H         0.79387112014982    5.16835723856013    9.90057479066382
C        -0.76190014026497    7.62699411979402    9.11458145070126
C        -2.09576755425533    5.45166268709128   10.40201898573715
C        -3.26345493807180    5.78357307806461    9.69080964280783
C        -4.13679390822747    4.77098817045880    9.32687784752981
H        -5.02295033024934    5.02532662400938    8.76427554701747
C        -3.91692567302017    3.44762325335538    9.68784971674922
C        -2.83018290300561    3.16596332085250   10.50632565348617
H        -2.69067259459410    2.15858762940659   10.86973848614752
C        -1.93317643770927    4.14732194802942   10.89617580209009
C        -3.63066279072967    7.19817091526842    9.35900682336029
H        -3.40929665859031    7.43946563290091    8.31958206048907
H        -3.11672343526362    7.90838771742296   10.00931464098774
H        -4.70239150975065    7.33246601856597    9.49530739255475
C        -4.86753047579914    2.37149598773182    9.28292696216255
H        -5.39764224770440    2.63918600824950    8.37296069180804
H        -5.60646892756961    2.21812212536086   10.06969914533872
H        -4.34613229651803    1.42984824639903    9.13086700386095
C        -0.86493267636109    3.79773264294258   11.88440479586349
H        -0.55515245018142    4.67984478195479   12.44373933051776
H         0.00309411574492    3.35362769247223   11.39903390689467
H        -1.25000414249589    3.06203137824067   12.58769543120725
C        -0.43154119658454    7.35446327205018    6.69581418922441
H        -0.77770885301810    8.38780886569492    6.62225986945215
H        -0.98840423349716    6.73405529631425    5.99147867423075
C         1.06223236561199    7.28579743641724    6.39671443617113
H         1.24614225911914    7.64365779689382    5.38884040089677
H         1.42687094482223    6.26435753161761    6.47158884204093
H         1.61605849194531    7.91309922031968    7.09020193588772
H        -0.83400910198027    5.87895143389059    8.15422337491788

