27
CSD_code = SOXKEY | q = 1 | S = 0 | Stoichiometry = C8H10AgN6O2(1+) | MND = 2
Ag       -0.31046510191176    7.60289214038514    5.57669137519070
O         0.07906685811420    5.17786940798986    6.31702303528123
O        -1.13430561113479    9.10705870015852    3.91354325314860
N         0.99230356657869    4.79965689681317    8.35229173237516
H         0.92446651443410    3.80555728679645    8.17487134413367
N        -1.98503656084625    8.43661833669494    1.91882232975297
H        -2.15155251428119    9.40523677924492    1.67751119265179
N         0.61039217604321    6.97583121875719    7.56610527243191
H         1.52171806742878    9.22223371600858    9.66120432157863
N        -1.18878907478845    6.90519571438083    3.49957150680851
H        -1.42853779134504    3.85412371808981    2.58089209041526
N         1.15365244189037    8.79210887195867    8.83022235842957
H         0.80884844220764    9.37473698697951    8.08089672791832
N        -1.22651528174523    4.67023257183689    3.13188363657130
H        -0.81903993261158    4.57798594951790    4.05318962503036
C         0.53390891808778    5.63935187530512    7.35298001979181
C        -1.41929694470236    8.18640119616084    3.15287808667926
C         1.10917605630085    7.47054753869444    8.69233356918118
C        -1.49053144440180    5.89551966720859    2.69426439033499
C         1.58521696951361    6.60409020038322    9.72634897778946
H         1.98865437158773    7.00788254823103   10.63748986917886
C        -2.07581085670793    6.14361209223596    1.41063139601303
H        -2.32206964024205    5.33135755680520    0.75027324991340
C         1.50505433208193    5.27015539325437    9.51020269373113
H         1.83730688894713    4.54130824146495   10.23362486566324
C        -2.30432800447038    7.43357577954965    1.06842486987496
H        -2.74258684404329    7.71595961511621    0.12322821013049

