49
CSD_code = SOXNOI | q = 0 | S = 0 | Stoichiometry = C26H20AuOP | MND = 4
Au        2.83315268314433    3.83525910317960    0.92896752886248
P         0.88967709830156    3.39914877971316    2.00168043372749
O         4.41602583098785    4.50121159869498   -0.10647943034828
C         3.54165617674650    2.22213121680711    2.04699401782089
C         3.93409491675997    1.28506948746480    2.66049893984949
C         5.15376368918252    3.78145136224114   -0.93457021254944
C         6.28843315855865    4.37232794418455   -1.50905176788085
C         7.07167045094981    3.67165504403372   -2.40101932702408
C         6.75966429611826    2.36530429878711   -2.74236071102001
C         5.64844297175980    1.76629338757765   -2.17472692689339
C         4.85343932696980    2.46255128812611   -1.28717629346918
C        -0.56599331309087    4.08086928965511    1.16225486346936
C        -0.40002380105084    5.21821397206826    0.37781869336052
C        -1.48900143122277    5.77664859638828   -0.26626408848701
C        -2.74084628719822    5.19690599442870   -0.13488755077062
C        -2.90633950925895    4.05958652784086    0.64073297895549
C        -1.82337837813342    3.49769605864471    1.29127438631153
C         0.81471378086133    4.06761748631261    3.67970928546556
C        -0.17794843726139    4.94932749240022    4.09433522374895
C        -0.15093030612500    5.44627559831168    5.38576032484576
C         0.85959502170325    5.07320987405818    6.25662670610972
C         1.85498795939411    4.20246203155248    5.83864640992212
C         1.84118642731998    3.70224595318731    4.55071986972764
C         0.51746841639042    1.63704545317633    2.15102867276116
C         0.59396017518863    0.89363877406272    0.97534353708170
C         0.35091309596096   -0.46481691258323    1.00331112652677
C         0.03783825970066   -1.08479618126510    2.20361701451351
C        -0.03601979843607   -0.34581509605925    3.37225695672059
C         0.20326751234409    1.01715113280063    3.35339874754924
H         6.52542616136063    5.39075266112166   -1.23958407074922
H         7.93972806885334    4.14935971042891   -2.83396527517521
H         7.37859822439655    1.81913000740312   -3.43881780552505
H         5.39642512817872    0.74457678196199   -2.42399471389472
H         3.99183729334284    1.98641669849109   -0.83206383300183
H         0.58648321130636    5.65542556193274    0.27655670614107
H        -1.36082938285116    6.65951985273073   -0.87437313566529
H        -3.59011424678125    5.62981645796320   -0.64179770800688
H        -3.88291386465338    3.60898844376306    0.73791907209096
H        -1.94379147010620    2.60998011341978    1.89737794437808
H        -0.96495068306352    5.24303610962353    3.41348890609577
H        -0.92180536024182    6.12900419004751    5.71142669615123
H         0.87452747272074    5.46588089320946    7.26232429337460
H         2.64603206938602    3.91724892058498    6.51559290660440
H         2.61485514383636    3.02809203912929    4.20387350488878
H         0.85397227223154    1.39082548987371    0.04852961585954
H         0.41525538052131   -1.04383881167891    0.09439648285998
H        -0.14246171263029   -2.14901581231171    2.22768226821934
H        -0.27590523265022   -0.83251280592315    4.30595376514376
H         0.15336154037322    1.59414394212389    4.26603497134184

