82
CSD_code = SOXQIG | q = 0 | S = 0 | Stoichiometry = C38H40O2SiZr | MND = 12
Zr        7.51134919366346    2.91616244067957   12.55321102528612
Si        7.51136458422909    6.24868979327544   12.55322230890990
O         6.96936742960531    1.90343272865678   11.05038413720545
C         8.84569139849551    4.96404858677711   12.17562064492904
C         9.62137401093851    4.26519486519935   13.16237483893880
C         9.98331385322223    4.58206838680939   14.48250636582746
C        10.86382363286071    3.76959131541638   15.15864492242490
C        11.42762187913666    2.64029659200150   14.55023244009877
C        11.11862723380920    2.30744083944088   13.25375343768329
C        10.20476892451910    3.09867244030060   12.54048831197817
C         9.75137269207951    3.06773478618026   11.18981490011141
C         8.95511710837748    4.20677228188737   10.96836522553185
C         8.47970512388885    4.64676271140061    9.61185800651850
C         7.09874891354380    7.45971489933059   11.12831563633674
C         6.29819134271743    0.84613539011822   10.57373704952335
C         6.14619916490881    0.72500859466078    9.17688344094299
C         5.44850089921011   -0.34170888419268    8.64338096056174
C         4.89911435560363   -1.31272657193469    9.46243237773331
C         5.06456795053459   -1.21098931230963   10.82892789096003
C         5.75767909145610   -0.15355024138143   11.40448187220011
C         6.74756530435577    1.77673835911292    8.29473967275016
C         5.89929322616795   -0.12355989825999   12.90291341907178
H         5.33470209133997   -0.41254938654794    7.57102591187880
H        10.11571731087196    2.39853470515846   10.41896177525334
H        11.15432037799129    4.01824265243346   16.16978328464420
H         8.94790218969126    4.04075560171192    8.83737356244555
H         4.35204131532718   -2.14060003734629    9.03786129362355
H         4.64777224063116   -1.96787940559273   11.47876355857451
H         7.39734966382488    4.55564586738186    9.50895245565569
H         6.21274704071896    2.71767911768997    8.42522810994671
H         9.62675691318480    5.49269205397948   14.94319785451465
H         6.69381422618353    1.48306473209184    7.24962197696724
H        11.59879394456863    1.46258510137809   12.77935292788259
H         6.97503881117625    6.99355664827166   10.15977465553987
H         8.75925897378800    5.68582957429606    9.43980689929331
H        12.12611879902668    2.03534200238462   15.10866062891500
H         6.18165900063528    7.99324845804963   11.35625686643813
H         7.78910679430057    1.93956627503932    8.57071866154238
H         4.91759500991135   -0.18967888428272   13.37355469329491
H         7.88918524565752    8.19768707023107   11.03650588016238
H         6.48174099364809   -0.98011944247246   13.24847829169873
H         6.39146628563173    0.79949535170012   13.23164731510805
O         8.05308464149189    1.90327660861087   14.05601664555508
C         6.17702429909228    4.96404726480419   12.93077975557320
C         5.40136162810762    4.26520583726982   11.94400024633514
C         5.03942741866728    4.58211335749631   10.62387314327764
C         4.15892071123257    3.76965354907431    9.94770875473861
C         3.59513556212771    2.64033026040998   10.55608361701893
C         3.90413580272574    2.30743240412357   11.85255107831452
C         4.81798598481518    3.09864935886502   12.56584505274969
C         5.27132756309469    3.06771609979114   13.91653811480345
C         6.06757702192580    4.20675384485695   14.13802038825380
C         6.54296182247891    4.64673097253790   15.49454032819356
C         7.92398349772461    7.45967018996149   13.97816376065295
C         8.72451659745506    0.84615477602794   14.53267123214608
C         8.87649890469694    0.72503614480748   15.92952862299826
C         9.57423495531048   -0.34165426810639   16.46303541168525
C        10.12365145482440   -1.31265859898511   15.64398985651218
C         9.95817292763437   -1.21095104449003   14.27749723328669
C         9.26503421244779   -0.15353824276547   13.70193824429896
C         8.27516215325159    1.77678674813584   16.81167035553098
C         9.12338417340050   -0.12360198270744   12.20351403909389
H         9.68810833279633   -0.41244043513788   17.53538494075150
H         4.90694395555658    2.39852554970923   14.68738156111332
H         3.86843870691886    4.01832367846817    8.93657058985975
H         6.07476404897551    4.04070462347763   16.26900920498968
H        10.67077129367760   -2.14049826495489   16.06856239738579
H        10.37496454736403   -1.96784742716578   13.62766690566862
H         7.62531705893088    4.55563026916344   15.59745524140316
H         8.80996458983776    2.71773258608681   16.68114500870345
H         5.39598774339525    5.49274803511971   10.16320556509485
H         8.32895457898060    1.48313972535184   17.85679333153340
H         3.42390984996857    1.46261057645388   12.32694937909057
H         8.04767735233175    6.99347813255393   14.94669025105435
H         6.26338774734836    5.68579064820815   15.66660156549160
H         2.89662422135585    2.03540302248240    9.99764487622053
H         8.84108595122808    7.99319148416527   13.75024333239749
H         7.23361046146134    1.93959811058063   16.53572376846211
H        10.10506239914182   -0.18976850029997   11.73284533436767
H         7.13355889016846    8.19765363318447   14.06998788925424
H         8.54087049793660   -0.98012898009528   11.85797634935432
H         8.63127189868748    0.79947209421386   11.87478113790481

