85
CSD_code = SOXRAZ | q = 0 | S = 0 | Stoichiometry = C42H38O2P2Ru | MND = 7
Ru        4.49974113790881    8.43105265081530    3.13393176619998
P         5.48364755982454    7.01090802572505    1.57766409927019
P         2.64539951999775    9.31309374725523    2.03342966669885
O         3.30249250958816    6.90681033151814    4.05413441235161
O         6.27493078201440   10.71196343118038    2.37951519723682
C         3.26165949863366    7.91324497060410    4.84992937005496
C         4.49573080403203    8.47180704976296    5.30072785214978
H         4.52109171104612    9.29190736022192    6.01104635097893
C         5.66737774840639    7.76849807740992    4.85092109674636
H         5.58081251687939    6.67465931523209    4.88120475942493
C         5.56376251846954    9.84814071469969    2.67571198231145
C         7.01478364136282    8.24447793074592    5.15809427329758
C         8.06632258114088    7.32886679680738    5.25211397984836
H         7.86190248646064    6.27591965891541    5.11412495397326
C         9.35511418697681    7.74869179635047    5.51481288845831
H        10.15289170616868    7.02202204651435    5.57999630684322
C         9.62707961986165    9.09438368311073    5.69830841612801
H        10.63509930460556    9.42387234606672    5.90396513132126
C         8.59490036957917   10.01509026234308    5.61542309620602
H         8.79899180095772   11.06709382483115    5.75637697392188
C         7.30624015277375    9.59850085708673    5.34881224965417
H         6.51669048561759   10.33361100732227    5.27158189542577
C         1.95914480916700    8.35392705782401    5.41090242397491
C         1.69963314038452    9.66964832658357    5.78511499757332
H         2.44484203733165   10.43603110400995    5.62518911583846
C         0.47762217005737   10.00711669770996    6.33436592030568
H         0.28061478928136   11.03313734922686    6.61105875669704
C        -0.49322082830564    9.03831639464623    6.52993639419856
H        -1.44497303235652    9.30657580160791    6.96501430551423
C        -0.24076220007069    7.72722101094863    6.16365153748635
H        -0.99422031646300    6.96740080796070    6.31353493744499
C         0.97520245258686    7.38711739904669    5.60420032842156
H         1.18365220745229    6.36951722566718    5.30695385964759
C         6.37191774681392    5.62709498383223    2.35882562025424
C         5.60756733590460    4.72098756208081    3.09309940958913
H         4.53763766265468    4.86811713321611    3.16628989944832
C         6.21113508100496    3.66608183259947    3.74992640550396
H         5.61181572582903    2.96862756697022    4.31767764765345
C         7.58728970575156    3.50898677554503    3.68970724336985
H         8.06116627573266    2.68583963453482    4.20443077866762
C         8.35393994398226    4.42010721383778    2.98361234008962
H         9.42848411478765    4.31099000208717    2.95149431159355
C         7.75318963320142    5.48034783696512    2.32569208307770
H         8.36696355309573    6.19533361496832    1.79979838973427
C         6.71710563095520    7.69758637749996    0.41143213167324
H         6.19624541908410    8.37658668602784   -0.26314366343930
H         7.19051895803195    6.90253179101512   -0.16436212862102
H         7.46392088689217    8.26402864991010    0.96627180149368
C         4.43945027289996    6.06547467474828    0.39302843914005
H         3.71799428246859    5.46399902444590    0.94277194519653
H         5.06738120289691    5.41068346610179   -0.21212281921196
H         3.90610949309502    6.76644846824269   -0.24917990063528
C         2.69539333102979    9.25653495935836    0.20351570182070
C         3.82251147063230    9.83359135729042   -0.37892583236972
H         4.57434045350574   10.27151346572779    0.26799481896140
C         3.97395243115267    9.84492820589242   -1.75159614309513
H         4.84722327940921   10.29973874851272   -2.19658237597378
C         3.00323818341286    9.27008701944285   -2.55883479982942
H         3.12172914079819    9.27173345185216   -3.63226281270893
C         1.88139618291483    8.69648763950157   -1.98615487408584
H         1.12209012178079    8.25204528362276   -2.61347515521210
C         1.72094826745140    8.69174716327317   -0.60993644919309
H         0.83802149347958    8.24664575528091   -0.17303169867892
C         1.03680656814671    8.54401366731247    2.38736937385910
C         0.94924156593175    7.16997626171162    2.17015389702146
H         1.81431087793444    6.64437555735706    1.78747346363584
C        -0.22173478479458    6.49313929694021    2.45001211483653
H        -0.28535520913399    5.42801342222213    2.27809855893737
C        -1.31273155739678    7.18091156295300    2.95716353720988
H        -2.22978239582451    6.65370972225996    3.17642303557063
C        -1.22302054232674    8.54209858880465    3.19460274126550
H        -2.06843563113558    9.07645604798023    3.60295553290610
C        -0.05192192052962    9.22506117689199    2.91893012386482
H         0.01507685455050   10.28406182934698    3.12299077055060
C         2.28946634203504   11.09620213884265    2.21253143132136
C         1.34526922936729   11.72445744801210    1.40447724558375
H         0.81333529540275   11.15104148320348    0.65732756332386
C         1.09364823824131   13.07469809583927    1.55718962741390
H         0.36042187053908   13.55924175326212    0.92877758811622
C         1.78144165842464   13.80844293509308    2.51163384551568
H         1.58266170562171   14.86391346460398    2.62614099447978
C         2.72781888389969   13.19043505810759    3.31131536572806
H         3.27068070686015   13.76323621608493    4.04904275706399
C         2.98147194969269   11.83867736213139    3.15992820812804
H         3.73175514177513   11.34220550819238    3.76575261477689

