46
CSD_code = SOXSAZ | q = 0 | S = 0 | Stoichiometry = C17H19F5IN3Pt | MND = 4
Pt        1.71405026852206    2.55270784035017    2.87852047243886
I        -0.71318547045389    2.76910850197904    1.94718696733313
F         2.30180332490416    0.49805957859401    4.94646155967280
F         2.78188838306718    0.04609938602633    7.57697157526209
F         4.87778623633845    1.31252518639972    8.83841010711345
F         6.43157490062360    3.05070935313015    7.39846605147312
F         5.88714008942405    3.62721238121034    4.85249966253120
N         3.64035869306257    2.33250587697284    3.54073506400016
N         2.65174994551819    2.26735455735999    0.99089500056215
N         1.05168292903366    2.94361430243446    4.69087981996403
C         0.17657500979393    2.16072186849759    5.32330893036522
C        -0.17060863850730    2.36027085492022    6.64637547803731
C         0.39482792135864    3.41789317988739    7.34078577949276
C         1.27927440331321    4.24900228868840    6.66883297124224
C         1.58082094923431    3.97826668675395    5.34835151501130
C         2.22327032331274    0.97890383424092    0.40387741741007
C         2.20509774753492   -0.15217165192676    1.42546975970126
C         2.29485952740123    3.35510946628982    0.05577509580982
C         2.49217046914658    4.74355355643409    0.65046467483102
C         4.12012264444092    2.26071605532317    1.21245253239947
C         4.50986220639978    2.91027247828261    2.54568500058735
C         4.02968780276807    2.10524279268243    4.79351112147751
C         3.30431191260462    1.16668625875364    5.57320123748368
C         3.55382778521240    0.91271808231358    6.90192548106157
C         4.61845989089542    1.54515487295615    7.53969261964157
C         5.40341229221656    2.42751510070608    6.80409747137623
C         5.11718748734961    2.70370888918971    5.48041572293757
H        -0.24716143093680    1.34200358695169    4.75594878208448
H        -0.86966322523721    1.69089484687016    7.12031459525265
H         0.15126348439088    3.59401307112771    8.37660443181427
H         1.73525105581668    5.09365749904586    7.15966629899056
H         2.26976846580596    4.61217331749438    4.80024561466507
H         2.87485155896424    0.72440007351206   -0.44263898719665
H         1.20800978087161    1.10527002021606    0.01865136720868
H         1.77475780395403   -1.04048683767593    0.97039450120928
H         3.19924428413487   -0.40246580232394    1.78762472602447
H         1.58483838762668    0.12685353420260    2.28435388874606
H         1.24208978601445    3.24395962935908   -0.21171873159540
H         2.88479626304389    3.25185623424231   -0.86515274848881
H         1.99381677065678    5.47677669609559    0.02144482112761
H         2.03848747552593    4.79067702932073    1.64601985469757
H         3.54240251383751    5.01398682466967    0.72166026450224
H         4.63153088571295    2.75493175170171    0.37989687255848
H         4.45961925003582    1.22397994049789    1.24900479605789
H         5.56131935784055    2.67777685331419    2.74694119709597
H         4.41376849743438    4.00378015292064    2.50378936602788

