110
CSD_code = SOXVEJ | q = 0 | S = 0 | Stoichiometry = C46H45N10O8Y | MND = 8
Y        13.19369129154483   12.30824765096655   10.23721471500015
O        12.04914625778142   11.44174033194909   11.87291412814025
O        13.18587546546080   13.81467065407146   11.79905256674552
O        14.28924707383257   10.48793524194632    9.76217814344501
O        14.91663737686959   11.88276620813652   11.78847110972583
O        14.33059006043320   11.17356744549853   13.72560187158911
O        12.87315330358478   12.89870338320313    8.10782244515859
O        11.27489929813849   13.68247633595391    9.98077053150202
O         9.19920375484475   14.01586517442500    9.54250335062775
N        11.50972595649468   10.75398841328052    9.40974824975112
N        10.24605919214613   10.78508468288637    9.79267631903492
N         9.37910297116246   10.28763149253264    8.95694516375521
N        14.67623075147034   14.06673910937555    9.72894711787542
N        14.51854440414479   15.36746773783813    9.89264319965193
N        15.22862344022130   16.13108505431024    9.10952350567852
N        12.04601173265398   13.64079021591409   14.00138312467466
H        12.54307832207295   13.42306838812383   13.02974746082602
N        11.94737371658661   15.33081426739083   16.56052045660961
N        14.52110661591776   10.96448642557902   12.53112810901131
N        10.31592912671851   13.68436762000804    9.16182919967607
C        10.78007424946639   11.62677471322188   12.01911214674699
C         9.82557411960440   11.29901314385010   11.01581969378949
C         8.46055886646652   11.49282270535637   11.20040892305589
H         7.79880996594545   11.23973940633139   10.38733450638917
C         7.96702817369780   12.01016306482146   12.38078108700762
C         8.87975061611650   12.33059774033007   13.38348994217896
H         8.51055306376359   12.74039857091450   14.31487414334384
C        10.23867075940350   12.14643392022850   13.23098890607440
C        11.18505159802513   12.49542078630491   14.34856085245597
H        11.85592947727264   11.65047878559514   14.53181753781801
H        10.61385610250120   12.72491038324084   15.25183991177645
C        11.31689358575497   14.87314623753375   13.63560350398568
H        10.41627193914383   14.56382646454712   13.09269894830673
H        11.02684900916563   15.41059257370443   14.54185661735559
C        12.14495082016362   15.73835167613979   12.71456388022317
C        13.00021624131866   15.10597133138973   11.77408284497341
C        13.67595368446015   15.93437944385252   10.85049622006701
C        13.52150042976892   17.31889735299656   10.87922972912510
H        14.05832656211658   17.90421274948922   10.14957053997257
C        12.70550370493522   17.92111736406622   11.81607858050411
C        12.01897513561827   17.11074944094540   12.72297129192746
H        11.35952596838276   17.57198670567768   13.44496991659560
C        11.47157474164464   10.16173051539469    8.19662359701353
C        12.48233646313889    9.84030386925218    7.28549052327559
H        13.51145517990478   10.06967347066325    7.51472687912082
C        12.09542184818380    9.24503930830311    6.11217184478199
H        12.84288324877670    8.97914539252875    5.37910154572459
C        10.74572900953798    8.97227483077028    5.82161552314593
H        10.50563481617226    8.50821977902351    4.87612746586790
C         9.73885946864381    9.27696834343387    6.70000773063312
H         8.70245782261411    9.07179756246133    6.48665871615224
C        10.10803029966207    9.87520031463245    7.90868781936897
C         6.50009203200007   12.25786371998960   12.55817214235002
H         5.91779793193666   11.47456201509513   12.07930256503285
H         6.22755781684538   13.20749956962711   12.09783346788362
H         6.23710013988491   12.30031073752266   13.61237447135380
C        12.53484215598772   19.40989722996351   11.86052778858769
H        13.18649256896003   19.89371125561717   11.13879529343566
H        12.76756069737482   19.79214677845229   12.85337427994943
H        11.50437432137755   19.67988196053707   11.63265323233076
C        15.58057405101732   13.96093257310389    8.73735561409965
C        16.14514583319735   12.83896765500003    8.12249437352314
H        15.86471630335206   11.84539112145883    8.44269658115767
C        17.04792148455458   13.07737234412320    7.11813972162392
H        17.51284290973759   12.24628150865997    6.60815267313809
C        17.39693102379527   14.38438313935060    6.72158208418802
H        18.11469012543652   14.50397785900888    5.92303685155620
C        16.85721304667756   15.49635900374603    7.31384010247444
H        17.12244611381280   16.49674621877362    7.01205539995954
C        15.93069990219920   15.28289708940587    8.34143363322750
C        13.15940382360785   13.86559561992359   14.93813842817825
H        13.74140746914082   14.70280696469606   14.54963302058654
H        13.78987079554384   12.97220358633255   14.90888560591262
C        12.75190690613189   14.12813286791869   16.38772931230251
H        12.17464896096914   13.27877838262509   16.75740967718309
H        13.67815252998584   14.17649011855840   16.98620379369454
C        12.74600329172198   16.53830498606573   16.46282985952240
H        13.22678639126565   16.59064031094853   15.48860271362880
H        13.52048308022001   16.59101842498982   17.24270618760201
H        12.09242314023518   17.40301128885344   16.56627729023579
C        11.21375736332173   15.30195711522273   17.81061563063329
H        10.56331546193346   14.42838573778499   17.83095678024103
H        10.59311121023419   16.19418116659728   17.87678509257936
H        11.87239927540882   15.26983047312072   18.69109359189524
C        14.23294695311798    9.52576582026426   10.59872699668968
C        14.35184319099932    9.69988798275005   12.01607976237216
C        14.21662491440036    8.62191415088782   12.90663951303537
H        14.29795019096186    8.83376574140122   13.96284420934516
C        14.02123029478283    7.34561408120719   12.45171586445069
C        13.92828049767792    7.14719276314897   11.05873668026194
H        13.77315179730818    6.14247656323460   10.68997744979178
C        14.02187579015387    8.18014815839285   10.17285202115757
H        13.93243572394429    8.00863942211427    9.11050793695498
C        13.90990702430965    6.17595199023840   13.38124295602776
H        13.98773799446780    6.49625656084910   14.41647454991882
H        14.70044570092072    5.45398795749095   13.17920325743767
H        12.95489705869661    5.67061548483557   13.24278235379986
C        11.83559230840989   12.95448636211003    7.37898340289352
C        10.52658517781175   13.31650646365350    7.85192870620964
C         9.40359015219967   13.26101327336223    6.99892271091314
H         8.44550341500905   13.51045828269262    7.43034077245090
C         9.51694199954617   12.89337467188246    5.68905528525733
C        10.80549787507875   12.59815265813599    5.19037931072598
H        10.90626331760705   12.32656757765481    4.14881318749828
C        11.90820306232562   12.63834261710051    5.98543008681273
H        12.88774365056478   12.39978308123957    5.59987270231354
C         8.32928447964109   12.79383160262171    4.78317209764625
H         7.41822133476153   13.06326014480857    5.30980322617491
H         8.22885173261341   11.77587085576054    4.40820759651430
H         8.44768912150212   13.45518312858300    3.92563796607539

