104
CSD_code = SOXVAF | q = 0 | S = 0 | Stoichiometry = C44H41N10O8Y | MND = 8
Y        19.41183741343827   15.09964657171797   19.77793377666176
O        20.81506846828851   14.04906650873970   21.09243192154788
O        18.72941636426267   15.79715255813499   21.63973226029971
O        18.48919104808891   13.65716420897169   18.36964108721216
O        18.40749911651212   13.10707236295128   20.87390196801629
O        16.83051207895587   11.87935103747308   21.65082102631635
O        19.67013112590553   16.72428800164936   18.33663466575199
O        21.07537988159452   16.68910836251035   20.50605323796190
O        23.06158938536187   17.49925655415263   20.51016815399418
N        21.38711110969911   14.39051565492525   18.54533681928759
N        22.64197098387051   14.44457894979471   18.96486170773741
N        23.54692329311617   14.59859489129712   18.03945017557534
N        17.07928778413924   15.75880963509108   19.59579409998614
N        16.15561021261859   15.42987319699971   20.48434768100941
N        14.93167370702678   15.35880902011456   20.04166045348179
N        20.25060240483645   13.99104670042321   23.55730504780481
H        20.22606953789348   14.08947474834271   22.45398139274635
N        20.26605942997491   10.24020993279519   23.47455592957566
N        17.32415988051806   12.49752261767019   20.71258915895181
N        22.02598537661540   17.24221956443297   19.90970536427291
C        22.08850881879055   14.20980662869235   21.33780767399929
C        23.04222019923369   14.35015293343556   20.29954258908301
C        24.40568938639050   14.44793032310649   20.56642853221347
H        25.07722095709166   14.56754199663640   19.73182478723160
C        24.88111865721859   14.40823894404409   21.86018527528480
C        23.95360536943543   14.30569189599511   22.89420352091761
H        24.30667020152087   14.31108322128261   23.91662350809244
C        22.59562406713162   14.21673020231306   22.66185330209283
C        21.67678395343935   14.22865280616480   23.86709470638957
H        22.01574538334451   13.49191440838387   24.60437852425929
H        21.76625682446677   15.21595962394013   24.33235008782167
C        19.36467788793568   15.00720685755845   24.17799134661621
H        19.40055898204918   14.89090679005960   25.26572123276562
H        19.75091417405261   15.98821977762983   23.88775296069043
C        17.95517595499825   14.89993738057923   23.67089437458711
C        17.75374854368383   15.31237620258212   22.32079235774384
C        16.43276103364498   15.15073383027419   21.81947302697271
C        15.40257045430981   14.65995538336878   22.61902208233167
H        14.42613679122386   14.55441456223790   22.17265680540996
C        15.62339104409373   14.30028194287700   23.93270736218053
C        16.91958340394285   14.41720429244817   24.43843873848951
H        17.11411717417100   14.11340462054926   25.45857573043299
C        21.48414282948278   14.50956435470119   17.20290394702966
C        20.51625785607486   14.51403782382784   16.19243476812230
H        19.47480607897500   14.38500716613711   16.44095330842346
C        20.95890704258942   14.68290678234523   14.90610737169481
H        20.24524771876093   14.69313140087936   14.09526973893241
C        22.32308627514013   14.84745446832449   14.59784572461176
H        22.60555085304352   14.98441078474057   13.56453817642115
C        23.29038751981750   14.83226869575311   15.56720130810700
H        24.33765122998206   14.95188084360045   15.34342932473817
C        22.86442319814487   14.65417237953409   16.88786839655192
C        26.34454128914279   14.52475083507697   22.15669417405066
H        26.63101846735658   13.85056235417852   22.96116669997055
H        26.57976483706704   15.54180680288297   22.46924752269637
H        26.93521316785909   14.29497825656891   21.27452845886173
C        14.51124932288673   13.79165115399164   24.79823670208204
H        13.68226357111752   13.44101872299995   24.19018262281638
H        14.14608515849250   14.58699133964308   25.44896074444929
H        14.85659611768397   12.97393071712242   25.42712769977639
C        16.38442881826034   15.93232279083076   18.45058608502205
C        16.79064526635573   16.28547955835004   17.16059268774473
H        17.82966746369263   16.49568179526347   16.96264694658086
C        15.81737280960395   16.35070351989335   16.19638358340332
H        16.08628979381384   16.61973434556104   15.18512197909357
C        14.46593580126252   16.07670446202268   16.47867448540920
H        13.74775146997792   16.14116207501315   15.67446903926915
C        14.04280032134450   15.73785059675703   17.73744269107860
H        13.00983587436191   15.53026790424579   17.96401277379617
C        15.01613853208642   15.66792138641706   18.73892260681469
C        19.80484599375546   12.62413906878006   23.86692079683792
H        18.72652856781804   12.58902900667638   23.70469081309905
H        20.01995187656590   12.39780117823000   24.91701894096929
C        20.47732266960043   11.58734221432056   22.96874572316341
H        20.09624650983829   11.71350905309444   21.94093267511292
H        21.55760577654406   11.75611912257167   22.94954494037572
C        18.85946789343742    9.87769923435624   23.51076601422571
H        18.77488321790577    8.81550438538686   23.73082484799102
H        18.33898547783362   10.08509035128138   22.56682547819127
H        18.35875558445983   10.42772538931626   24.30478957275253
C        21.03219108174997    9.28743582068787   22.69553478463571
H        22.08748106047715    9.55541761722297   22.73604151371099
H        20.72176563933271    9.25245524531447   21.64067255036014
H        20.91077990511512    8.29601199270969   23.12847106421647
C        17.34756996338576   13.09711896298855   18.33733027187511
C        16.69919775945113   12.51495271541793   19.48222039982767
C        15.40890623315822   11.95877906038036   19.38923425940624
H        14.97150702003983   11.56368217552469   20.29371998533182
C        14.73935513220484   11.94307057542719   18.20106249325787
H        13.74329139204207   11.53615821972211   18.13637074872391
C        15.36266262024441   12.46308454812475   17.05421323930157
H        14.83580573471513   12.43978650363232   16.11132683415758
C        16.61351303659593   13.00145605469735   17.11397883838691
H        17.08384714287538   13.40852482615526   16.23168285744232
C        20.69695565232366   17.29219692990292   17.84217740799434
C        21.90957369045184   17.55851798099976   18.56602119877756
C        23.03217516251859   18.11992233234761   17.92841798069563
H        23.92009121954390   18.26668784297002   18.52461553140521
C        22.99380747359009   18.45529072328826   16.60650529243263
H        23.85952405969307   18.87449135008589   16.11986928233737
C        21.80737728452547   18.25404671058688   15.88318889924868
H        21.77095266008310   18.53357863726457   14.84015856305978
C        20.70697909672515   17.70800061261632   16.47414080848460
H        19.80017986210446   17.54851453892811   15.91041137082776

