70
CSD_code = SOYMIC | q = 0 | S = 0 | Stoichiometry = C32H31O3P3Pt | MND = 4
Pt        3.59009780303122    0.06930675481211    6.48676781001716
P         4.14177624038070   -0.32139691385863    4.03315639222267
P         3.83587306192355    2.07304543296499    7.50124508624380
P         3.48290513880788   -1.42054323406524    8.17794335081129
O         3.77976348664030   -0.50300295748979    2.62140584271652
O         3.57593155489677   -1.37193067211355    5.06663529981993
O         3.69810381067806    1.03194577415327    4.71724131855124
C         3.51072459476827    2.42081289916087    9.27634364889171
C         3.65403438736191   -3.15442253474563    7.63393136413731
C         5.96429389405763   -0.33058520450402    4.29095772734058
C         6.78395737048067   -0.24714981309753    3.17963265648201
C         8.15823819766062   -0.19575662621807    3.33170404635174
C         8.71727069467373   -0.23226983922449    4.59930301674112
C         7.90008042548527   -0.32106690333998    5.71404637624588
C         6.52738241717937   -0.36520993137018    5.55369496825882
C         2.91448708523418    3.41132070831973    6.69789638381742
C         1.77778109367714    3.09484928562675    5.96467694247450
C         1.04834807659267    4.09910336459602    5.35401474128533
C         1.45102408302681    5.41877939754449    5.47713170872507
C         2.58373103416108    5.73707325395943    6.21051002870279
C         3.31651176325365    4.73739367228763    6.82287092117708
C         5.58255920791944    2.49904216361087    7.26173762274310
C         6.53672450538292    2.23572131193234    8.24019327679542
C         7.87745861285147    2.44070252716097    7.96782567715382
C         8.27475209567590    2.89068973111249    6.71947677518069
C         7.32888102144890    3.13495809826584    5.73672513927347
C         5.98744399751819    2.93666909941682    6.00219758633195
C         1.90699083547373   -1.42644164492309    9.08276979797663
C         0.92502549506295   -0.53496078116486    8.66585425287281
C        -0.31021325481065   -0.51826684643798    9.28826008519654
C        -0.56728836878594   -1.39341114104807   10.33137438486630
C         0.40936890301070   -2.28329812269220   10.75155105891164
C         1.64460559389572   -2.30386140598989   10.13004782003283
C         4.75255475539894   -1.24888915231812    9.47520416579327
C         4.46230124488323   -0.69615683303514   10.71872479686349
C         5.47282230488159   -0.48487246073065   11.64076200681749
C         6.78179339821679   -0.81190908144872   11.32735562458596
C         7.07824314478408   -1.36077936889860   10.09000737745879
C         6.07084210887057   -1.57712939001247    9.16831373909704
H         2.43983527358700    2.32909270760214    9.45261951598784
H         3.83391693213743    3.43188883902232    9.51957888628892
H         4.03170847001533    1.70150194615366    9.90374993608431
H         4.57122016974844   -3.25834893608376    7.05629339896990
H         2.81660630766209   -3.37019439052242    6.97064231516256
H         3.65837902444018   -3.83916573751296    8.48195692078345
H         6.31972168184003   -0.22540225539439    2.20517794784382
H         8.79758262326632   -0.12750308397938    2.46268064057610
H         9.79093115200926   -0.19324574192648    4.71935544659760
H         8.33100158611226   -0.34997753925654    6.70598275601337
H         5.88341155240832   -0.42867717961614    6.43638389431787
H         1.49411404046261    2.05580180771089    5.85185507229911
H         0.17218028751424    3.85278929285235    4.77324033263677
H         0.88685366207644    6.20259101529964    4.99359847588993
H         2.89924540351230    6.76655047080649    6.29836621382110
H         4.21015228933030    4.97841026664221    7.38359575486207
H         6.23430455826429    1.86256165371848    9.20866763274203
H         8.61551420854080    2.23829600554364    8.73070646280838
H         9.32315583042175    3.03980109627713    6.50819274476217
H         7.63913871131670    3.46756015047603    4.75764332511857
H         5.24420889611736    3.09795924767900    5.23397019694046
H         1.15371405144871    0.13419777347233    7.83958928161173
H        -1.07341687659439    0.17144342608582    8.96017210049289
H        -1.53123392698362   -1.38520375337567   10.81782880521497
H         0.20466239343891   -2.96440276379977   11.56439146933806
H         2.40876334283663   -2.99345434129427   10.46082964248675
H         3.44072024910301   -0.44304840619218   10.96592543702940
H         5.23775240098432   -0.06050342895371   12.60607334471412
H         7.56858398317505   -0.64053136839197   12.04665205138482
H         8.09744476147926   -1.61914563178073    9.84376220870124
H         6.30664514473044   -2.00274375745676    8.20372696956685

