86
CSD_code = SOYPAX | q = 0 | S = 0 | Stoichiometry = C33H38B9O4PW | MND = 9
W         3.23001623584625    3.41236736189620    2.24972723423895
P         2.59421391350077    5.77976122276441    2.99049418308213
C         4.70338277178708    2.58495926901077    3.86671258828765
C         5.86935765388494    3.56570912304916    4.03799931579428
C         4.64240781272431    1.58066522403862    2.66342394364001
C         5.72373450288767    1.55769409695429    1.57916717974828
B         3.01500441822843    1.13633046078416    2.31717018943850
B         1.98942463542767    1.94122773778171    3.52795491033252
B         3.14133197115071    2.90825724539983    4.47569599772668
B         5.18554736600177    0.93680231216971    4.18807047587153
B         4.11322355667841    0.01766501597669    3.16904299201623
B         2.46732874069628    0.22883365616606    3.77583105301762
B         2.53865020374191    1.34914963298760    5.14003395515978
B         4.22799189686925    1.80600449765821    5.35212959554560
B         3.81879282871097    0.13011333973729    4.92231247138037
C         4.65488909987232    4.51901196880544    1.41909577620837
O         5.47824718334105    5.10156779785308    0.82880336010639
C         1.66769703606011    3.92749313246556    1.13464471889933
O         0.80848281598426    4.20253682762610    0.40169318195084
C         3.45696200555432    3.28179688689568    0.29178144987649
O         3.58096297756815    3.28457818788302   -0.86992000502295
C         0.38541973056044    2.26534433779376    3.27961912083592
C        -0.54238482737469    1.37990323144990    4.05384573564394
C        -1.00577802021400    0.18116405782708    3.48794342525522
C        -1.83099221442249   -0.65987956183787    4.21997322755909
C        -2.20856677328270   -0.31876203882184    5.50957504760260
C        -1.77106614462775    0.86374989602430    6.07065968856666
C        -0.94408860511168    1.70012968850441    5.33905319831928
O        -0.60638667915636   -0.06402486580554    2.20167684327984
C        -0.91895907972603   -1.30365887717022    1.62589574033611
C         3.58293801259116    6.62200186257503    4.28905863914494
C         3.11056684860439    7.00515391878343    5.53776222302846
C         3.95903962936117    7.62549436658752    6.44026035812982
C         5.27869967431091    7.87437235057677    6.10601167915592
C         5.75289066300603    7.50949829485045    4.85545968834459
C         4.91171960867121    6.88418435619313    3.95543493736366
C         2.70424486346305    7.10745470211951    1.72671581533462
C         2.86243750391888    6.83985933191206    0.37294016907110
C         2.93776952120856    7.87757774475290   -0.54135877783732
C         2.85254725944473    9.19092279181142   -0.11396702827286
C         2.68222261527948    9.46675570728344    1.23366776729357
C         2.60720677287300    8.43390701154687    2.14782416338566
C         0.85708765333521    5.98688311914595    3.52674390448455
C         0.40909612454337    5.42399569506509    4.72252761184935
C        -0.91711244683482    5.54275747579571    5.09853987575834
C        -1.82129197892364    6.18908303073781    4.27268587896799
C        -1.39402483030808    6.70998096086937    3.06326100595810
C        -0.06574187297601    6.61041872161660    2.69021292381874
H         5.51376292627380    4.51750591379006    4.43930967787299
H         6.40332282595629    3.77327496983325    3.10844888196712
H         6.60637658894299    3.18004445855428    4.74488739460817
H         5.29453947686601    1.21814048066070    0.63454336749791
H         6.52569249871029    0.86291249370241    1.83459567802522
H         6.18856720565539    2.52946877669578    1.39619779053302
H         0.14237568746299    2.12803335017053    2.22276307465489
H         0.14598811131200    3.30125518597863    3.53848703268323
H        -2.19045643581425   -1.58617317159567    3.79922236766407
H        -2.85040354088542   -0.98492427572135    6.06741534721759
H        -2.06918706046279    1.13375400898237    7.07309276120454
H        -0.59432541767055    2.62394551418629    5.77475025349174
H        -0.44114196116896   -1.30246036771333    0.64709226111641
H        -1.99979807679682   -1.43407241225597    1.49762187400786
H        -0.52127728046304   -2.13365618907763    2.21913273844829
H         2.07880616450971    6.83805277777435    5.80627924359135
H         3.58243250688782    7.91844842793056    7.40899830201606
H         5.93526896783437    8.35704619237169    6.81391313322053
H         6.77827700088648    7.71093135517388    4.58351338400991
H         5.27631809898105    6.60877058859052    2.97456811668182
H         2.92301908671164    5.82051755225168    0.01878202067659
H         3.06383593103792    7.65430756038040   -1.58984782757561
H         2.91488976132464    9.99814437492861   -0.82804986920061
H         2.60718372064950   10.48929274390013    1.57277941068372
H         2.46719852066345    8.65273816585030    3.19764885587839
H         1.09275223831687    4.87454524791313    5.35267587692096
H        -1.24934001862726    5.11543662090056    6.03270833572930
H        -2.85704661461860    6.27274966466772    4.56447288356298
H        -2.09749855066872    7.19468639978453    2.40300528446145
H         0.25130395884741    7.01599855860199    1.74078805361845
H         3.97832203689856   -0.77342791017517    5.65598369987429
H         3.02366399433849    3.91763026100790    5.10957356810619
H         1.79986157594585    1.32209550520617    6.05509554183119
H         1.68339111573612   -0.64088524577119    3.68633486212008
H         2.75539919260791    0.71947762163501    1.23376958959775
H         4.74183981318453    2.19566800667790    6.33752169337061
H         6.34350471421887    0.75467831965568    4.28279047752284
H         4.53613860167656   -0.90594383353270    2.57604743269762

