131
CSD_code = SOYQAY | q = 0 | S = 0 | Stoichiometry = C56H72P2Pt | MND = 4
Pt       -0.00129672638776    0.00010864679805    0.00112852196055
P        -1.25638033218323    0.90835891187471    1.66592300688386
C        -0.94589443903901    1.26140658028985   -1.22866881980278
C        -1.59384812421817    2.00845765242203   -1.93305064666339
C        -2.35133957264002    2.87356877059779   -2.75260202051067
C        -2.07762570645684    4.24514687433926   -2.79170925260004
C        -2.82776545831831    5.08627300992734   -3.58197629773521
C        -3.87342706847118    4.57925677181034   -4.35979256967311
C        -4.14833056934050    3.20832885878596   -4.32417912925353
C        -3.39983222449218    2.37019870567096   -3.53054476739099
C        -4.64486618603701    5.43624880761854   -5.16867654874448
C        -5.31298757854698    6.16412206367630   -5.86470427546308
C        -6.09300552230746    7.01121303063326   -6.67851813237066
C        -5.89434832174325    8.39360171652426   -6.65520276080066
C        -6.66278481808513    9.21682881759950   -7.45421392212208
C        -7.63423475795170    8.67826422995326   -8.28350633347521
C        -7.83644683442810    7.30717156209595   -8.31099082857455
C        -7.07421717020817    6.47475802697720   -7.51572130062640
C        -0.90478337573024    0.44423970912615    3.41093286152492
C         0.45531555566646    0.98312269523329    3.84487192305297
C         0.95472717951305    0.31322464605688    5.12210894225993
C         2.27972961999228    0.90410026233515    5.58696005539299
C        -2.97141825761719    0.30274729590839    1.39501036264662
C        -2.91223417336805   -1.14674807933795    0.91208351861525
C        -4.25831940974160   -1.64691490832739    0.39853625889512
C        -4.16011074263006   -3.07294442343207   -0.12898661773449
C        -1.41946100452753    2.74044653575798    1.67972764373981
C        -2.40830666736912    3.32024565259790    2.68562406399923
C        -2.58923838482801    4.82906516664288    2.49922926546352
C        -3.34042046606784    5.18637222746864    1.22168434372584
H        -1.26579917792255    4.63846640400239   -2.19415706018923
H        -2.61498765757465    6.14598215024912   -3.60865487993694
H        -4.95634123426996    2.81566328347293   -4.92568454728229
H        -3.61620836076630    1.31138637251132   -3.49936247051557
H        -5.13592051813549    8.80836819538585   -6.00671023030608
H        -6.50495844008027   10.28573104556637   -7.43217792853914
H        -8.23266398932267    9.32591423483765   -8.90737260055844
H        -8.59363914958971    6.88661230764718   -8.95732977418678
H        -7.22772014964653    5.40522271413831   -7.53310486068763
H        -1.70531116057760    0.79332200233245    4.06854216810567
H        -0.88541083547768   -0.64927213960212    3.43967779241454
H         1.17418606984043    0.79568134247783    3.03995372226765
H         0.39598476699444    2.06337991732068    3.99951515879664
H         0.20759681701735    0.43029932547673    5.91149661777958
H         1.07958475330020   -0.75563917593851    4.93637206245694
H         2.63873017515726    0.38785195973434    6.47396082345196
H         3.03128467759137    0.80913422262886    4.80670165506550
H         2.16774354743207    1.96014900204636    5.82482588750706
H        -3.41174409296569    0.93135378365798    0.61472762949407
H        -3.57345762725563    0.39007522532900    2.30348223111649
H        -2.56679357588927   -1.79222504200240    1.72349327504028
H        -2.16869247686516   -1.21040645987293    0.09679533436169
H        -4.60479408458576   -0.98746444444588   -0.40064096391906
H        -4.99473556746734   -1.60559522042713    1.20537293774732
H        -5.12528998962910   -3.41535165897562   -0.49446160461015
H        -3.44395720549473   -3.12445719026401   -0.94624765528962
H        -3.83036335798109   -3.74882051233832    0.65695770771180
H        -0.41965845976047    3.15589166989454    1.84369454484712
H        -1.71242604683439    2.99757832222258    0.65827103064902
H        -3.37928581615140    2.83332231780892    2.57457021739070
H        -2.05174253058766    3.13309554710583    3.70088164007311
H        -3.14531198914996    5.22080693976711    3.35440133379640
H        -1.60928989868664    5.31186114760465    2.49374489152347
H        -3.49273806545177    6.26146518749539    1.16407736764509
H        -2.79064431113957    4.87727128786516    0.33661779567455
H        -4.31470250312317    4.70249212437307    1.20465605854717
P         1.25518113727702   -0.90751810963950   -1.66468546101476
C         0.90475693563465   -0.44413615696363   -3.41020254254179
C        -0.45517125436096   -0.98290073703087   -3.84489008927965
C        -0.95430662161113   -0.31270840074420   -5.12210339310482
C        -2.27913524625351   -0.90347913389554   -5.58760979206104
H        -2.63788685387180   -0.38698020489653   -6.47456951814713
H        -3.03095388893820   -0.80879340155012   -4.80757482235340
H        -2.16702629003211   -1.95944571816145   -5.82577455489912
H        -0.20693751916649   -0.42948764400972   -5.91130502636142
H        -1.07931057957228    0.75609312271147   -4.93611198426286
H        -1.17435503693622   -0.79576459698045   -3.04018654957681
H        -0.39573361009328   -2.06310890747408   -3.99983202037699
H         1.70553673766451   -0.79309830549821   -4.06763259339007
H         0.88533884667611    0.64935458576472   -3.43891324891848
C         2.97078821874515   -0.30309680556571   -1.39420425246420
C         2.91176047573680    1.14622332671794   -0.91073321996179
C         4.25777550821574    1.64601720294671   -0.39665259179013
C         4.15963405192236    3.07204464272381    0.13088436704147
H         5.12479202542549    3.41432058952471    0.49652446866170
H         3.44335685018386    3.12364900628073    0.94802108995933
H         3.83010800642244    3.74799418376197   -0.65508004767927
H         4.60380873030036    0.98646924758443    0.40262980353238
H         4.99449306941763    1.60459776243961   -1.20319982706680
H         2.56656119673903    1.79206088332446   -1.72195276223833
H         2.16803830144536    1.20965749912592   -0.09556576995415
H         3.41093269871525   -0.93203620220629   -0.61407863326751
H         3.57292195172231   -0.39021765373837   -2.30267287762344
C         1.41857803390694   -2.73970328333523   -1.67955828394358
C         2.40743703200166   -3.32001101030137   -2.68523956840590
C         2.58842197000545   -4.82892290834415   -2.49928702317348
C         3.33924203595154   -5.18659485119277   -1.22162974281572
H         3.49129763162084   -6.26173017980706   -1.16414045170697
H         2.78938085828482   -4.87751186898079   -0.33660717736171
H         4.31364037101828   -4.70295263692568   -1.20435868776378
H         3.14468669961789   -5.22057966972218   -3.35439425559060
H         1.60846698658805   -5.31169392004130   -2.49412437930006
H         3.37846201401063   -2.83323122918165   -2.57404806364606
H         2.05105245582876   -3.13271017929061   -3.70052827400190
H         0.41882909371556   -3.15516663780913   -1.84374715967599
H         1.71134105426948   -2.99726238551054   -0.65816538444298
C         0.94540461104329   -1.26312138625149    1.22720216343984
C         1.59492869587184   -2.00828989609543    1.93206983682258
C         2.35160173780198   -2.87298743623173    2.75277034558510
C         2.07771182989767   -4.24452605266808    2.79156036341338
C         2.82759233012226   -5.08593181190481    3.58172032117336
C         3.87319386308235   -4.57920282016029    4.35978321810684
C         4.14819284362226   -3.20827439586604    4.32463094094230
C         3.39993604039519   -2.36983715883462    3.53106523545700
H         3.61654809891470   -1.31105663904510    3.50010428857957
H         4.95625988126063   -2.81588812967745    4.92626788425553
C         4.64472871685532   -5.43648644074195    5.16823549932599
C         5.31287134716059   -6.16476188017712    5.86379715157590
C         6.09356518255704   -7.01176967852263    6.67707012782329
C         5.89550091469074   -8.39422575696482    6.65407615669738
C         6.66482435232883   -9.21696046295988    7.45274984680114
C         7.63654246649692   -8.67784680975299    8.28137541500936
C         7.83805960580308   -7.30664712887070    8.30866316197536
C         7.07494400049504   -6.47473211144189    7.51374287416845
H         7.22781468806553   -5.40508888062988    7.53094761294728
H         8.59547898244065   -6.88562801049955    8.95443631437037
H         8.23584987062387   -9.32515489013428    8.90475249257817
H         6.50759779920866  -10.28595149229534    7.43085804569784
H         5.13686354027626   -8.80948280842614    6.00615889741957
H         2.61479560235836   -6.14562810780605    3.60793834426616
H         1.26601792228304   -4.63757513361564    2.19366190921705

