39
CSD_code = SOYSUU | q = 0 | S = 0 | Stoichiometry = C16H18N2O2Pt | MND = 4
Pt        6.39082588430324    2.14092882122969    1.78546293262459
O         3.30108864474645    1.80412956683759    3.28841011403918
O         9.46806735963290    3.08337845323189    1.05196432639598
C         5.59596359199871    2.29658404595557    3.69133894340789
H         5.64571464946358    1.33714863992201    4.22047900016815
H         6.03638051653776    3.08346749358950    4.30395836925989
C         4.21378344582447    2.62045350356226    3.30149759959364
C         3.95922845060793    4.06138106139996    2.88777916984969
H         4.52292780361530    4.27842831617833    1.97741563363375
H         4.29081128916476    4.74298099522877    3.66666517974070
H         2.89852513878844    4.20673947444659    2.69964663076957
C         7.47086603431802    3.88371523592190    2.09066306818129
H         7.35199735895307    4.58434693953257    1.25818854858977
H         7.29775902386198    4.39637135448343    3.03634032756752
C         8.77360748032576    3.20307371904710    2.05626393848814
C         9.23707092791535    2.60011094279558    3.37643737839544
H         8.51069411222526    1.86026157612834    3.71883441813560
H         9.31580782236891    3.37810700496431    4.13213081275047
H        10.20630345358956    2.12544711339841    3.24267235997998
N         7.17290877143249    1.79879251200450   -0.12309178606793
N         5.66456824134673    0.22676142112372    1.38433502347003
C         7.84703622693943    2.64965773118550   -0.88581080419303
H         7.66196895260710    3.70067690951601   -0.72526503694760
C         8.72827651588871    2.23761043945554   -1.87246073722278
H         9.25012512983281    2.96809956877537   -2.46783268481287
C         8.94521873324744    0.88134311808828   -2.04120564195740
H         9.65730461683757    0.51934144407033   -2.76715962381846
C         8.22176475347883   -0.01083810322122   -1.26878218806318
H         8.37305571237032   -1.07094159307407   -1.38998322029923
C         7.32092327856928    0.47557050489289   -0.32471130023783
C         6.42564689516871   -0.38894770397940    0.45688445099112
C         6.29089871881789   -1.75518712297928    0.21468136601697
H         6.90356033065187   -2.24304023201119   -0.52556890695352
C         5.35525456422565   -2.48666467771087    0.92360816270479
H         5.24556914945676   -3.54627117770988    0.74865918102039
C         4.55315740671701   -1.82760501866903    1.84235881391810
H         3.79137873964847   -2.34991749597417    2.39773079509462
C         4.74568320889572   -0.47084182213371    2.04157422775807
H         4.11907706562133    0.08474704050004    2.73179115802073

