84
CSD_code = SOYSOR | q = 1 | S = 0 | Stoichiometry = C40H38NO2P2Pt(1+) | MND = 4
Pt        8.98634083283226    6.16230696620314    6.27533379385384
P         7.89397487671028    4.27832748576742    7.22734896610120
P        10.12761059138329    6.35847239449158    8.25119309079364
O         2.76457701967722    4.93292811437771   -0.48215940745356
O         3.36152235019063    6.98472181087408   -1.16361285007342
N         7.25903224795590    6.06381972550152    3.73164686644475
C         6.37018567773994    6.06063542357975    2.71338260385645
C         6.25088711856097    7.18940441752516    1.87908040669834
C         5.29415907680098    7.13054182064636    0.86705558537978
H         5.16566484946652    7.97286828953590    0.20393484370866
C         4.49505838749623    6.01253131907229    0.68839246885293
C         4.63624211200166    4.90197535242860    1.52362737893163
H         4.01372838639305    4.03543917366726    1.37438653623791
C         5.57353001347041    4.92726839185201    2.53147590123358
H         5.70416249975586    4.08326255745529    3.19230585240169
C         7.99550562716741    6.06621640181928    4.63549825284378
C         7.08629734989666    8.35938625939623    2.07449050602504
H         7.79597703101180    8.33162462013053    2.89223385585996
C         7.02603222207562    9.42845266912350    1.31886127154279
C         6.97151796125132   10.47784458110828    0.57497116275062
H         7.58012284691451   10.58093573389115   -0.30932703683321
H         6.31703649208061   11.30467685553935    0.80045624210948
C         3.49477838644851    6.04879676515363   -0.41711245866672
C         1.78581378312150    4.89233805552335   -1.51407824661912
H         1.07092130697822    5.70765105632480   -1.38882626575101
H         1.28975382014811    3.92972284613745   -1.42516891042231
H         2.26244742244179    4.99148075834767   -2.49095161431189
C        10.01268124121809    7.78082774923009    5.46094875026930
H        10.24949850259718    7.64371824546397    4.40267079743313
H        10.95080562893468    7.97251121689367    5.98639324674037
H         9.40078849958639    8.68406333043453    5.54848565427130
C         7.49397502031999    4.26709105543803    9.02445640991028
H         6.71710878311520    5.02553080945759    9.17446368500246
H         7.05061843710101    3.29483811817166    9.26487212916744
C         8.69158233804428    4.55342897818559    9.92924110132982
H         8.38350989736451    4.38481994834568   10.96528413426494
H         9.50177806127676    3.85265624414738    9.70701838422196
C         9.21592639723466    5.98379695934788    9.81411967516179
H         9.90121038836743    6.19539271003631   10.64208404350757
H         8.39056657229887    6.70074687133012    9.88761805570439
C         6.26537058822674    3.90368169291475    6.51643688168184
C         5.42309009028723    4.98616530352525    6.27447296305858
H         5.76732874994435    5.98823913060875    6.51121074153792
C         4.16990168232421    4.78254252351945    5.72973368619061
H         3.51772615744856    5.62171058320875    5.54127801358794
C         3.75631321304800    3.49574392501239    5.41878721379807
H         2.78025282794094    3.33479474998074    4.98787526089737
C         4.59395171110153    2.41740865399765    5.65455933145088
H         4.26936761177209    1.41751710892442    5.40952463153368
C         5.84946406855641    2.61563351910619    6.20348478222958
H         6.50694796251150    1.77647063742168    6.38287804866454
C         8.89278514637410    2.80021609675186    6.90447048571080
C         9.46642609134967    2.74582574537373    5.63399087226942
H         9.26702996214166    3.54899302801150    4.92911838093259
C        10.27476174501005    1.68505262598925    5.27623636109874
H        10.70974045049123    1.64494635630589    4.28909491630609
C        10.53069380733538    0.67581876395740    6.19170690507257
H        11.16949653461601   -0.15032319543167    5.92024110103796
C         9.96544200681872    0.72555746654554    7.45483593120461
H        10.16166858383272   -0.06317182731061    8.16528426395474
C         9.14440829362063    1.78066190385146    7.81466589519714
H         8.70227628342635    1.79610858027800    8.79972687138355
C        11.44048281241925    5.11319260523114    8.17442801609728
C        11.76469567538566    4.64507475709790    6.90270478553966
H        11.25640292777309    5.07026081448350    6.03396255508224
C        12.72615144061801    3.66505696921062    6.74405492204620
H        12.97477401188732    3.30562535321542    5.75740736751049
C        13.36869339456413    3.14576007055394    7.85622192252624
H        14.11748943239894    2.37802116716217    7.73700276789424
C        13.05702786403781    3.61415868461729    9.12314858390055
H        13.56557076423088    3.21318887772691    9.98685266121396
C        12.09659700955947    4.59602650324679    9.28755682498696
H        11.86295760339888    4.95956285226186   10.27827875353558
C        10.90636137933402    7.92927447257669    8.71433637342062
C        10.08288402353024    9.05266879044516    8.72500075050493
H         9.04327395951747    8.95080772043191    8.43601198760307
C        10.59631126193257   10.28326948959985    9.08452546294229
H         9.95840749920395   11.15394893076734    9.09432437626083
C        11.93551224007929   10.39764103941750    9.42598301687906
H        12.33914203807389   11.35892841920021    9.70409617852801
C        12.75892496259342    9.28422817989005    9.40148086721990
H        13.80305703135005    9.37846529076099    9.65830287555421
C        12.25006981903529    8.04708023704077    9.04444721267824
H        12.89533922324831    7.18041332040039    9.01486333628539

