63
CSD_code = SOYVUX | q = 0 | S = 0 | Stoichiometry = C22H38IrOP | MND = 8
Ir       10.14777743041450    1.86451306809249    0.36769965654192
P        11.53174808363745    3.27262591329525    1.50327679401675
C        13.25364894844084    3.61919346992620    0.96081711666226
C        11.84271524792704    2.89675590890702    3.27742852126458
C        10.91223299473312    4.99853947394864    1.63640821959828
C        11.68189963782073    0.86351723748147   -0.66011104120214
C        10.66868793656396    2.76720946211424   -1.45526950928923
C        11.52262958364540    1.61342517925088   -1.98786518337866
C        12.85610171811450    2.03133884271326   -2.64216822322827
C        12.59432193143333    3.08287952084280   -3.69159981350715
C        12.01725039436261    2.56784676663417   -4.98787222102963
C        12.85710869153601    1.41554352308437   -5.53986459662618
C        12.97324882862286    0.30188859913856   -4.50671206840025
C        13.61121647336639    0.83120101534922   -3.22695460882944
O        12.80816613614942    4.25671394291196   -3.49663077419714
C         8.12902796129222    2.09705049516955    1.54171521435061
C         7.84628497145664    1.94347761540744    0.17217198570323
C         8.39999158614427    0.68752798103114   -0.25410319693098
C         8.88702150461513    0.01064871859004    0.91829188594201
C         8.77037279621160    0.89125566671423    2.00749558273949
C         7.60176671618578    3.18539005507145    2.42627368821629
C         7.00975591240018    2.85761419396342   -0.66674832056125
C         8.09622804673707    0.01892032303006   -1.56215915038859
C         9.29905360260385   -1.42568353441414    0.99925364419969
C         8.99887089864792    0.51936033178603    3.44099157904395
H        13.83807076141570    2.70343554974078    0.99284125750773
H        13.23932123220015    3.99419432322188   -0.05907811814979
H        13.70914334353904    4.36211227345174    1.61360392710597
H        10.89663905050267    2.85697655634091    3.80995695667331
H        12.32263041053207    1.92391239528768    3.35300987443965
H        12.48024714064904    3.65341617454012    3.73185479876880
H        11.58165535958065    5.61192874069262    2.23713116397466
H        10.83512074884456    5.41505537701844    0.63512268397768
H         9.92323599507181    4.99451251467599    2.08608690030436
H        12.69144020576082    0.97126942523799   -0.26010511746336
H        11.46431292741579   -0.20149391982256   -0.75662101912721
H         9.78561662799446    2.95211861167373   -2.06960082689632
H        11.24289533475996    3.69443944286309   -1.40337076685787
H        10.94864881943614    1.01380796874989   -2.69585237029248
H        13.46891794479317    2.49182534700290   -1.86110176444724
H        11.00434687428576    2.21406607689191   -4.78276351398182
H        11.95758745734975    3.38794241608667   -5.70557826879496
H        12.40051052744270    1.03694096982876   -6.45708941235611
H        13.85373150298423    1.78601115344103   -5.79126784302645
H        11.98296584191926   -0.10288298501151   -4.29217367892190
H        13.58273389982404   -0.51171681852609   -4.90623694653871
H        14.63799326182200    1.13583979432524   -3.44602226531729
H        13.64988632728691    0.04253294968352   -2.47332445128540
H         8.26794583260826    3.37826607696988    3.26708973961180
H         7.47213556490221    4.11340609100013    1.87164188187312
H         6.62817133953820    2.89983916935344    2.83237821140454
H         7.11303494655163    3.89368928473390   -0.34900519946173
H         7.28924811414393    2.79633848984693   -1.71649266871376
H         5.95586964858572    2.58135221296615   -0.58353151514493
H         7.12787939293509   -0.48493143881358   -1.51230689350717
H         8.05650438362171    0.74316901452607   -2.37363389857527
H         8.85082553834852   -0.72615555036783   -1.80722280753269
H         8.43797699397010   -2.04412907068408    1.26384396672977
H         9.68655473682519   -1.78220421452823    0.04729090760612
H        10.06518757410519   -1.57327880723439    1.75849502911409
H         8.19589045537511   -0.13569282837896    3.78774804251241
H         9.94055196336843   -0.01369904841149    3.56855221674026
H         9.01064388664395    1.39723251158971    4.08366660733940

