147
CSD_code = SOYXIQ | q = 0 | S = 0 | Stoichiometry = C65H79CoNP | MND = 7
Co       10.27210277241451    5.85210183879259    6.27433440672276
P        11.57090308706614    7.45899444743161    6.99661173191748
N         8.94988735287823    5.06589528811817    8.77668229322569
C        10.37267391208492    6.10454891510376    4.11870048945034
C        10.28031549158566    4.25977876892575   11.20603950877318
C         9.50898908413896    5.42791510094642    7.79658329775459
C        11.33730787858703    5.10179298843846    4.51792448388407
C        13.04193541832978    6.81599427470988    7.87626552050044
C         8.90029123100389    4.80113236396534   11.14691597003957
C         9.08544328529320    5.65639122252591    4.47032846982702
C        10.64635836707306    4.05988238788142    5.14599496043840
C        12.33168186338444    8.53078319735442    5.73232135914202
C         8.18410563720325    4.94444730143338   12.32786397228370
H         8.67818272585192    4.72762729842534   13.26351348825633
C         6.10255748662574    5.37062997592435    8.63757384629360
C        10.13572284685873    8.38220641039132    9.18147739721712
H         9.74534123363628    7.37801841399545    9.16686725125699
C        11.32026742084176    4.99952298652758   11.77140768919967
C        13.61798849876662    8.33734939848133    5.24369463849295
H        14.24062822549619    7.55724403910849    5.65912646499987
C        11.06508114756519    8.74354469756017    8.21333202522536
C        10.50682367610666    2.93484706606507   10.80323741802701
C         6.01332239067496    6.50776732526505    7.83623388451820
C        12.55404035050984    4.39672606518899   11.98045300498096
H        13.33858728586926    4.97145913833166   12.44383287503718
C         8.24704081840215    5.07301191409053    9.93335753610121
C        13.12565407065320    5.44776846470293    8.10027802233719
H        12.31161033893468    4.81487586636425    7.76526903952642
C         9.38656985596814    2.08597995970323   10.24056013057641
H         8.68029806643189    2.73318333733859    9.71641956861712
C        11.13748461965083    6.44516003437702   12.17443488056651
H        10.15914147536271    6.78471239097420   11.82067324967168
C        14.10568849137635    9.14716078743077    4.23171022563024
H        15.10839207320546    8.99329016457634    3.85865032744717
C        11.75505807591174    2.37635102655505   11.01777560391061
H        11.93575147767791    1.35233005072438   10.72880454386974
C         6.87064858603366    5.35730214116536    9.90808526515497
C         9.24925407824088    4.43900842478111    5.20220862729965
C        14.06558526453542    7.64813538699023    8.32015263021930
H        13.99863818937479    8.71588902218591    8.16784860246540
C        12.78547023696646    3.08076641778260   11.62634292589592
C         6.85742062375864    5.33796734271671   12.31826095598515
H         6.32471344171710    5.46631799109638   13.24863253160748
C        10.64515447453314    7.20314189772366    3.13756691547694
H        10.01892250127594    8.07360859517357    3.32526559234190
H        10.42511017593429    6.84251850381250    2.12952030726003
H        11.68478414471676    7.51967895405770    3.16014719276622
C         6.70384788488469    7.79117177142186    8.23390408926037
H         7.38366457729246    7.57546786884994    9.06288841117326
C        12.02400799274656   10.33654967825843    4.16746727077265
H        11.40178587460848   11.11220600500040    3.74456294744162
C        11.53218173236702    9.52495153259348    5.17110149927823
H        10.52181255380584    9.65334786189589    5.53819880940646
C         5.21736080681405    6.47724660680041    6.69725810116925
H         5.14244789680945    7.36849044135578    6.09626445840877
C        11.58561591225084   10.03387439014711    8.23509109653809
H        12.30931967928043   10.34699763644510    7.49624450956059
C         9.71428859532015    9.28770515933715   10.13711871671707
H         8.98209692650181    8.99291586445715   10.87537200293455
C        12.77209914148979    5.06496794733459    4.08795878294821
H        13.15894301625566    6.06678285668270    3.91429812804324
H        12.86378318251166    4.50112448555691    3.15630182165656
H        13.39833915750079    4.58205099818029    4.83733035503759
C        15.17013313294005    7.10781710163511    8.95046436490341
H        15.96874869022483    7.75461675534342    9.28445874069284
C        11.17949921283673    6.60030063919564   13.69683834711262
H        10.39829086221493    6.00976868807665   14.16906674423122
H        11.03504162180220    7.64349328237816   13.97017669621958
H        12.13873638778998    6.27174955226754   14.08991060450871
C        13.31465661231380   10.14973111545194    3.69646501816478
H        13.70034750699361   10.78083590027834    2.90929160499175
C        15.25782559803719    5.73897634044059    9.15098491172548
H        16.13460365970526    5.32459247576945    9.62799148139679
C        14.22935141016237    4.90949574029184    8.73706235613585
H        14.28735272476922    3.84440663934720    8.90662680457132
C         5.40307055993222    4.20927004820314    8.28552655409703
C        11.16800126128571   10.93918064483286    9.19475378638223
H        11.57752158611757   11.93931047576277    9.19819131128136
C         4.61331957307042    4.22239377322898    7.14825055395598
H         4.05064639186755    3.33862313773562    6.88431110152576
C        14.07498517365624    2.35312575965834   11.93098077557883
H        14.31123828020843    1.71546230755583   11.06993459616989
C         7.78374452273998    6.24347880666540    4.02019334096659
H         7.00483853469627    6.07139821994389    4.75990206728198
H         7.47753352720491    5.78028169139335    3.07789939227862
H         7.87347482219702    7.31512887272562    3.85298407273935
C         4.50244705399637    5.34636706774305    6.34067496511739
C         6.20053373190281    5.51216558403877   11.11255641504007
H         5.14818442060132    5.75571461295994   11.09440779971302
C         5.45974143896233    2.95712532369740    9.13384556244498
H         6.19132008462935    3.10172152171397    9.93408385820086
C        13.85351044789931    1.44572548581115   13.14693663437322
H        13.59376352809078    2.04541653084560   14.01702273222111
H        14.75700791441818    0.88231410205009   13.37104605857888
H        13.04349516770829    0.74405602013313   12.96302234179843
C        12.20587119665907    7.32821465603985   11.52668597325384
H        13.19150659642688    7.11758836410284   11.93362274526672
H        11.98284971677510    8.37856760783517   11.70184189480885
H        12.23650629437616    7.15828953881998   10.45349338400438
C        15.26512273186109    3.27435341072231   12.18425386084087
H        15.36169146059674    4.00559797818410   11.38658151342641
H        16.18149810066707    2.68918052298948   12.23327564894944
H        15.15360201719501    3.80006484184791   13.12998669820115
C        10.22849414658675   10.57327049855678   10.14374795774144
H         9.90006251122615   11.28780775541389   10.88443158749560
C         5.90278618616619    1.74489916142452    8.31313491958049
H         5.17686527360479    1.50202207066811    7.54149599370356
H         6.01196230194864    0.87683614651041    8.96050480124077
H         6.85763099904359    1.94391416939313    7.83323296248135
C         8.13109125901328    3.51449257656522    5.57629754735692
H         8.44696279631206    2.81523101715629    6.34726924059133
H         7.82538573553180    2.93937655849274    4.69931177846007
H         7.26641510185053    4.06413038225471    5.94224036121612
C         9.86644855303279    1.03853517477680    9.23611105940790
H        10.53396372109516    1.49142490980982    8.50648948814236
H         9.01226045145965    0.61619898065823    8.71023656726661
H        10.38836638938721    0.22089022857228    9.72755139440895
C         7.52646045269068    8.38682590720704    7.09259580598327
H         8.25639550032905    7.65718514628069    6.73147641414158
H         8.06508647496273    9.26412524569817    7.44614315691145
H         6.89230313504713    8.68737090379948    6.26275313885094
C        11.19868832487744    2.71523978783597    5.50754761436612
H        12.25317501627144    2.77884092149652    5.77036185650373
H        11.10308045760555    2.03615698831677    4.65655284211152
H        10.65928823983453    2.27941726274551    6.34577160288903
C         4.09985932555162    2.69817899660959    9.78689959699638
H         3.80341358105582    3.54959678768479   10.39530154222478
H         4.15071443995026    1.81914484565584   10.42620134336644
H         3.33333944856300    2.53252035153311    9.03361979795748
C         5.66509650921255    8.79999949737271    8.73364749852016
H         4.95920240144322    9.04926393543793    7.94458862993025
H         6.15758036046692    9.71418312681054    9.05891883829407
H         5.10851056321909    8.38841905012970    9.57324107226823
C         3.61049346582763    5.26756219045059    5.12164487805537
H         2.69183073187479    4.75003245796239    5.42684781277581
C         8.64157290624774    1.41112652898952   11.39698022409701
H         9.32060169979492    0.77932929297224   11.96627717628626
H         7.83080837903769    0.79415896477983   11.01529430154874
H         8.22189696921598    2.15740731467609   12.06823772464854
C         4.28760798780097    4.42252771158353    4.03685817062675
H         5.19265752731439    4.91268611924269    3.68805172637711
H         3.61811625517931    4.28884210153830    3.18947099676850
H         4.55783312026360    3.44257180594211    4.42304877590245
C         3.21694152000967    6.62855001506450    4.55377203074076
H         2.78653190143330    7.26051305207611    5.32771112628209
H         2.47628323130021    6.49847672024834    3.76721688625309
H         4.07829641087852    7.13330551236604    4.12196632355032

