36
CSD_code = SOYXOV | q = 0 | S = 0 | Stoichiometry = C14H11AgF3N5O2 | MND = 3
Ag        8.00258670126535    4.81654401966420   -6.51197408961204
O        10.40205714011545    8.93138330307569   -3.90448454002228
O         6.30576510735386   10.38305876717592   -4.42618219900434
N         8.20964223762571    6.77572788599573   -5.49332564845677
N         9.45017979405956    7.10603956005463   -4.99397771365196
N        10.26840035284900    5.05998530214747   -5.70551813207295
N         6.98766936552577    3.21976211887359   -7.67028356517211
N         6.62628189132127    1.47790014309043   -8.94588734821820
H         6.79812057777591    0.66343086704664   -9.51348224212468
F         7.71983668806542   12.21873652884612   -3.22746769032180
F         8.88689971656943   10.63963135678572   -2.36491041762385
F         9.42790095347510   11.47847418707642   -4.29180190327600
C         7.40463198100066    7.78858129008224   -5.26319333005072
C         8.07466926128314    8.84204306996871   -4.60189565410171
C         9.43500118079695    8.40595897258505   -4.41383029231423
C        10.50104830596410    6.23270839774640   -5.09272518149984
C        11.76474687435351    6.55717152521884   -4.57100337425225
H        11.90416705471881    7.51049282784446   -4.08968087338101
C        12.78566592308440    5.64538607333001   -4.69139986802395
H        13.76467365214221    5.87303301304502   -4.29788744944756
C        12.54223728708930    4.42763561104712   -5.32371102818416
H        13.31833315200274    3.68780889899709   -5.43470753810756
C        11.27497429047998    4.19160644151485   -5.80752989926464
H        11.03580710286015    3.26079432138585   -6.30618450298862
C         7.46851993041417   10.06936735470174   -4.23434919456597
C         8.39492990939904   11.09678795745102   -3.52581667636983
C         5.98416860254539    7.74947557121093   -5.67509922587516
H         5.77430548175489    6.80514448784988   -6.18660913924621
H         5.76558975596493    8.59002875510727   -6.33029239933287
H         5.34389608892481    7.85333379221973   -4.80132115112799
C         7.55021306723998    2.23195559325060   -8.32533557199353
H         8.60435009856999    2.04107776924671   -8.36818744365766
C         5.40509689970472    2.01753421317322   -8.66927806052104
H         4.49250193120462    1.60531942800759   -9.04567026935534
C         5.64526812971504    3.09892566606870   -7.87594899585872
H         4.94846351278588    3.78855492912496   -7.44404739091806

