47
CSD_code = SOYXUB | q = 0 | S = 0 | Stoichiometry = C19H18AgF3N4O2 | MND = 3
Ag        6.56102364612654    3.15844885866976    2.73216601319850
N         4.83430580433858    1.75055417996890    2.72449006813185
N         3.84492962222272    1.96924955431995    3.65716354912179
N         4.99425565824322    3.82831112512263    4.42043589199438
N         8.57306782159936    3.92050456213377    2.04271350302320
O         1.86483477856350    0.92377924549048    4.29703951164552
O         3.16756243453525   -1.75691129953082    1.08856604004879
C         4.52200072211820    0.66238367023484    2.05927831653948
C         3.30903993602786    0.10325408210630    2.52123998686749
C         2.84381577780604    0.95968088965709    3.58216323676619
C         3.91274789619076    3.03729294997994    4.51202829558291
C         2.88927344926717    3.28886092312258    5.44118298422138
H         2.04250442297699    2.62467129540113    5.48068994553035
C         3.00294841996312    4.37626485466131    6.27343569823922
H         2.22860544084791    4.58997564069981    6.99441409072036
C         4.12471859975234    5.19750376754107    6.17556860023148
H         4.24599935586835    6.05911602715510    6.81178460771164
C         5.08162699098433    4.87707546309043    5.23924234976963
H         5.97341299749028    5.48097845146162    5.12742760110739
C         2.72142725391472   -1.07364967239904    1.99532318343458
C         1.38555445826992   -1.51623234913436    2.65342480737132
C         5.38735883664042    0.15314536919453    0.97212589901047
H         6.23421362356783    0.82929829239912    0.82410921360530
H         4.81149080286578    0.06723484935394    0.05325102341488
H         5.74074846608816   -0.84605565754274    1.21849480041737
C         9.63095787115865    3.10668791177657    2.00455455326705
C        10.87625479409959    3.55343901957828    1.58949929995421
H        11.70883138993214    2.86744072213479    1.56752124004702
C        11.04662308404121    4.87777096536804    1.20318717785792
C         9.93087182561077    5.70410441204362    1.25419161602751
H        10.00493027531202    6.74098512828059    0.96497639634944
C         8.71101572737647    5.19591409688991    1.67566293800713
C         9.42664451338068    1.68622628986385    2.41836544418822
H        10.13324327112397    1.41000257810392    3.19792136564148
H         9.58393475296954    1.02152092354810    1.57059051960183
H         8.40503441905657    1.54546548233712    2.79443424135985
C        12.37969339564725    5.39242330691964    0.77344579345504
H        12.93217832292363    4.62946302614898    0.23051181260630
H        12.96476578483243    5.66752342227886    1.65135841204016
H        12.27434080634438    6.27431666245593    0.14713276834321
C         7.49867255191980    6.06681911341381    1.73467216517853
H         6.63155057538486    5.48370763965408    2.07023956488332
H         7.28425219782458    6.48533769476324    0.75331281864434
H         7.65901644183101    6.89311355905659    2.42484345975024
F         0.92415026044506   -2.64049156266352    2.08242171123576
F         0.41176252235213   -0.60441350395260    2.51850000267573
F         1.51700800030013   -1.79059196125169    3.95969748104446

