33
CSD_code = SOYYUA | q = 0 | S = 0 | Stoichiometry = C15H12I2N2OPt | MND = 4
Pt        6.37860258637983    1.87967505515606    2.16053777644697
I         8.67663799974768    1.86170824002813    0.84238991270769
I         3.96016651451614    1.80678250433241    3.24084940158480
O         6.93811558218694   -0.86725985412876    3.20360571639334
N         5.92631965565630    3.68174040360012    1.31179966391635
N         7.16911052638678    3.65795304764794    3.75993692725374
C         6.73324494789812    0.18632006732976    2.82139783326955
C         5.32558061609649    3.68656335537183    0.12772476321215
C         4.98354941073390    4.88828346221681   -0.51017644017389
C         5.26962389965582    6.08643274986910    0.08656634904356
C         5.90642295522157    6.09542160713085    1.33802589599443
C         6.22144890741773    4.85055777885405    1.92448181684271
C         6.23326988298371    7.30488456880021    2.01164420513555
C         6.84809235715918    7.29117219413224    3.21788599881886
C         7.18291737725627    6.06092408564535    3.84422504683301
C         6.87296125489616    4.84037740902376    3.20574053143534
C         7.76559456287468    3.59593461938622    4.93124688787020
C         8.11193437642214    4.76088332782622    5.63657902806322
C         7.82136796938021    5.98585644109720    5.09453301720685
C         5.01690496703016    2.38132789794885   -0.52606227625442
C         8.04933228755072    2.23270504508484    5.46324334788230
H         4.49552375412591    4.84885173022942   -1.47096923146103
H         5.01446039594721    7.02187196666214   -0.38832805000886
H         5.97512820376359    8.23553993554790    1.52897375892743
H         7.09595667479667    8.21025760662393    3.72765443358388
H         8.60141124302585    4.67876331237071    6.59439549280614
H         8.07538135463637    6.89900422205913    5.61330641670995
H         4.51031734516088    2.53693351916458   -1.47507861946319
H         4.37132929085393    1.77130551698273    0.11167305384403
H         5.93538154279504    1.81951984434208   -0.71621090978526
H         8.55652128970208    2.27475995202166    6.42245762794669
H         8.66968332258863    1.68486279099795    4.75289010697386
H         7.11390694515388    1.68338559664224    5.57666051644443

