44
CSD_code = SOYZEL | q = 0 | S = 0 | Stoichiometry = C20H17I2N3OPt | MND = 4
Pt        3.52316342734577    1.91639876081175    1.74947094865924
I         2.66704582783348    0.38057799571737    3.74576006038618
I         4.77787418243697    3.54698608327161    0.09681257133679
O         3.41770872968493   -0.17096332694782    0.12761402971405
N         2.70385442771790    3.53854589979027    2.83580014171998
N         1.25101336918670    2.54777376187928    0.69990252549869
N         4.13976783784740    0.40658447654702    0.93565432767768
C         3.42353691043434    4.09639862503102    3.80133589104544
C         2.85332432333044    4.99148320837169    4.71799516865190
C         1.51711950687845    5.27594306180728    4.64841316626464
C         0.74227532777045    4.69336033246917    3.63318581177952
C         1.38944440311469    3.83479163792929    2.71565670905295
C        -0.65194315619154    4.94542970648831    3.52272615859742
C        -1.37932547705622    4.39648418225654    2.52234188332472
C        -0.75754234433780    3.57686528917649    1.54441420831320
C         0.62217896557476    3.28399920411818    1.62941918156356
C         0.59157387467671    2.10984821855353   -0.35186862180604
C        -0.79262405115312    2.32700447032613   -0.49809536925101
C        -1.46532213185848    3.04433884065210    0.45184553246609
C         4.86948291481234    3.74476881241796    3.92013857313621
C         1.35064497480987    1.37863081382527   -1.40125670914884
C         5.33524282042589   -0.22162503491223    1.32595697592947
C         5.50225279434269   -1.58713249189906    1.08084387042634
C         6.65269767964414   -2.22179228945698    1.50014572187139
C         7.64530774511391   -1.50397557620168    2.15082464438693
C         7.48901703293536   -0.14433881851271    2.37958025385351
C         6.33895679519292    0.50149093733498    1.97418174334310
H         3.47665333552678    5.42821450468258    5.48194742159175
H         1.04843510533119    5.93808502113046    5.36123266005729
H        -1.10989621229253    5.58708453450130    4.26055379256147
H        -2.43972941730269    4.58258047367619    2.43572832041622
H        -1.30275682358887    1.92673399580452   -1.36062425519565
H        -2.52711496609257    3.22880850580269    0.36948996417377
H         5.29365184361383    4.17032393708756    4.82564834625748
H         5.42243672159585    4.13338088552811    3.06319192672385
H         4.99589440277330    2.65957983022464    3.95633031101339
H         0.84756156974596    1.44319663797179   -2.36231962520948
H         1.44668740506039    0.32906462086064   -1.12488638716687
H         2.35685096580391    1.78232170965190   -1.48691308575208
H         4.70767218971084   -2.12417328544620    0.58351902678243
H         6.77501198771276   -3.27939704868870    1.32346895489828
H         8.54416934168594   -2.00397235994627    2.47846916455845
H         8.26867504298987    0.41403875285246    2.87469547641804
H         6.23237079721338    1.56675250345961    2.13056858907977

