67
CSD_code = SOZCOC | q = 0 | S = 0 | Stoichiometry = C29H26N6NiO5 | MND = 6
Ni        4.69908923452208   12.40928511744658    5.36151118717807
O         5.70429478872931   14.02149387396050    5.55838878424277
O         6.97775722937705   14.47931226545036    9.51575442641753
H         6.44200493846083   13.76147005586724    9.09573876001252
O         4.57873771379604   12.47478203723450    3.44743062275608
O         3.66936917744172    8.65959171564460    2.00657728212500
H         3.59874191231714    9.03142419765619    2.92101743918782
O         2.91610806076142    9.60370035686976    8.36139134465458
N         5.71435172418574   13.18046599068384    7.66447736271100
N         4.95233203103587   12.20961786744986    7.15407769538649
N         3.82781109915880   10.38721042040852    3.92304646152268
N         3.91358909758747   10.77346643913740    5.20293432737493
N         6.81979938472265   11.32696185500531    4.84966906469348
N         2.74008075289946   13.55153987998596    5.63106000099273
C         6.07500149906300   14.09120769405076    6.75853837768658
C         6.88480567708983   15.22588017071907    7.22220900559511
C         7.29354890693687   15.36347164699986    8.56201749806412
C         8.06169893244455   16.47346130300782    8.92102658024148
H         8.36593451313643   16.56439554894737    9.95197710169051
C         8.41913657613602   17.41829042973525    7.98393284396341
H         9.01548836996542   18.26739580186606    8.28341786453907
C         8.01806895470653   17.28407528049317    6.65983835328603
H         8.30075388770074   18.02568618718879    5.92856856429158
C         7.25842694042080   16.19732253501717    6.29029341378925
H         6.93107476665988   16.06706247465360    5.26967379575044
C         4.36596122215917   11.40606282502779    7.98786748228764
C         3.51217159859561   10.29502896315968    7.54072930677772
C         3.39522145303028    9.99915878532362    6.10302487255246
C         4.54430784084115   11.57488239437713    9.46474051682713
H         5.59045811368735   11.42977545180947    9.73182295767129
H         3.92904691472958   10.84743192582234    9.98676747995657
H         4.26347081859454   12.58445659859458    9.76255492229317
C         2.68298366045785    8.74048890205957    5.71852958067411
H         1.90815062870489    8.96001710069886    4.98531484625531
H         2.24435071598950    8.29115539961078    6.60519321750702
H         3.38181178693112    8.04020648403412    5.26119323631721
C         4.25117105501050   11.32126434823608    3.06910686746596
C         4.33406880804933   10.95232964453316    1.64985346354098
C         4.06900314824557    9.64751544822951    1.19571811278485
C         4.23697777874385    9.35996785001784   -0.16043596053545
H         4.03066996106620    8.35463681631587   -0.49293137427466
C         4.65441992686021   10.33346150626849   -1.04207610003636
H         4.77820127478049   10.08875368068366   -2.08666611659505
C         4.91833816003741   11.62273635283170   -0.59508392139742
H         5.24697100833025   12.38167288636876   -1.28836496520984
C         4.75977468170666   11.92158936743102    0.73924786199806
H         4.96424705115851   12.91114649046172    1.11955359925351
C         7.36466430850562   12.01331240218938    3.84499926917047
H         7.43913307404212   13.08288605571213    3.99335880588115
C         7.79242616029303   11.42600787180299    2.66544621246502
H         8.20338806568292   12.03302104730293    1.87406194689464
C         7.66535324077921   10.05448830413522    2.51920640615605
H         7.96039480799240    9.56497131861238    1.60275406396205
C         7.15796518932344    9.32380041251301    3.58155224032172
H         7.06145093295483    8.25077204909108    3.52442413391012
C         6.76068229890869   10.00212099375757    4.72164856632975
H         6.36688215454381    9.46160575195141    5.57501651514209
C         1.75251077260296   13.26902318098971    6.47500581956954
H         1.84874841304149   12.34980482667425    7.04149071780364
C         0.64636480171578   14.08477125733420    6.64359489870360
H        -0.12801625226305   13.81002737854178    7.34233906869836
C         0.56177691901830   15.25105383900980    5.89975811211627
H        -0.28503921797923   15.91292986893953    6.00677891170874
C         1.58681845372482   15.54664023432041    5.01642315145010
H         1.56304212987574   16.44209830232526    4.41553785251405
C         2.65431337479948   14.66912492055993    4.91376432892089
H         3.47655659546969   14.85872961684541    4.23601093403438

