98
CSD_code = SOZGIX | q = 1 | S = 0 | Stoichiometry = C48H42N2O3P2Re(1+) | MND = 7
Re       -3.41783747569940    0.45519576916114   10.41365131891441
P        -5.67370379434426    0.91942512404237    9.63072092973884
P        -1.17503056478156    1.39542044014195   10.49272917176627
O        -3.40534920765899   -1.01690229484446   11.17098514535979
O        -2.91945886100743    1.54117970392447    8.47839155485656
O        -3.96485635601553    2.65355799666133   10.66202080701356
N        -3.03455112873831   -0.64346613327908    8.45323283905420
N        -3.79234504052690    1.40887219677643   12.45322693329215
C        -2.82857546792077    0.49182196917858    7.75558362777725
C        -2.54025869067832    0.44810089009185    6.38156034998657
C        -2.46603482098755   -0.78436818396006    5.78256318544361
C        -2.65805843485724   -1.94244915912271    6.53384471553971
C        -2.93878751648147   -1.84785559346437    7.88454167241817
C        -3.12208450449249   -3.05630528291829    8.74162058549923
C        -4.03712177570111    2.62979005236901   11.93738760509033
C        -4.34168191940408    3.71579660621785   12.77446560444874
C        -4.38914533938721    3.48713633152419   14.12667016928555
C        -4.15460744336478    2.20908497898765   14.63079880116658
C        -3.85984605883703    1.17159347932712   13.76552613320876
C        -3.62619610627575   -0.22177168566072   14.24676352257839
C        -6.70715721569777   -0.55889582456477    9.38212544428743
C        -7.97839634825157   -0.40915699669999    8.83196947269431
C        -8.80378980534235   -1.50957520777291    8.70009497021501
C        -8.37280873955047   -2.75794848786843    9.12389317276400
C        -7.11709223358302   -2.90422357714047    9.68938775675839
C        -6.28481832984165   -1.80545834792106    9.82330699670053
C        -5.70111142064538    1.80281502809433    8.05556442164698
C        -5.93311864398785    1.09447520922611    6.87783487787765
C        -5.87327955099200    1.74393203630720    5.65830463660021
C        -5.56433397508800    3.09329657044090    5.60283228865151
C        -5.29777182324500    3.79174889565537    6.77011584789484
C        -5.35460431716843    3.15183149070570    7.99419032342569
C        -6.69118700732389    1.78694140639005   10.85529914748611
C        -6.78852518802457    1.16583827301329   12.09982578931718
C        -7.51451903794016    1.75816452054458   13.11379640393302
C        -8.15516532981665    2.96731972384791   12.88805939149044
C        -8.08315125509838    3.56967170775433   11.64364200217362
C        -7.35280741451491    2.98448277541442   10.62240479099010
C        -1.18499325409919    3.18383148966506   10.74418488798763
C        -0.94256084938348    3.70310174610708   12.01447890235279
C        -1.03251328915968    5.06605255426299   12.23154329691910
C        -1.38249249682621    5.91439710164238   11.19368736212400
C        -1.66125392841486    5.39622381518633    9.93841441977988
C        -1.57474092518145    4.03537853467777    9.71099492363855
C        -0.11744146323397    0.71562594262750   11.80923115639823
C        -0.50905301297334   -0.40559570624061   12.52806763880059
C         0.34099668715960   -0.95016041647559   13.47608193545044
C         1.58317190487554   -0.38094325669189   13.70191672315144
C         1.98343508368650    0.72804773903235   12.97146878307513
C         1.14106950596150    1.27430792741919   12.02186321887426
C        -0.15803408333286    0.98069669914998    9.04982490036845
C         0.47186269111636    1.91449786314228    8.23868395375416
C         1.21276414300745    1.48363679289732    7.15052255105100
C         1.32646702841637    0.13245086170324    6.87090839674481
C         0.71612824712757   -0.80201290159074    7.69414974324063
C        -0.01992788634037   -0.38110950173231    8.78384947043504
H        -2.38742802917956    1.37029827348049    5.84713563614621
H        -2.24833776380837   -0.86000734650965    4.72818048399146
H        -2.58375570950422   -2.91428526470296    6.07446187450918
H        -4.09697665627558   -3.50395580004205    8.55437855545715
H        -3.05717452893457   -2.77625631578396    9.79107686165895
H        -2.36186454572861   -3.79933968880647    8.51304163941373
H        -4.52622916037624    4.68185059386609   12.33611108555766
H        -4.61811875901679    4.29616060465884   14.80336169705331
H        -4.20666471051875    2.01846927723360   15.69001011233489
H        -3.73064169369630   -0.91848004439819   13.41739514338043
H        -4.33394041857735   -0.47491583199240   15.03209754061282
H        -2.62096686610085   -0.31178544390017   14.65614019656329
H        -8.31429483174642    0.56765596683307    8.51039148016559
H        -9.78717169602705   -1.39397889028445    8.27032586048564
H        -9.02117993730027   -3.61423687501999    9.01862989452797
H        -6.78794070173755   -3.87375905602815   10.03173275647520
H        -5.30595593816070   -1.90128263329352   10.27703618764859
H        -6.15783310943135    0.03725850373932    6.91575078782764
H        -6.05990140510096    1.19204090406503    4.74942572601809
H        -5.51677033351157    3.59687206563342    4.64912102587513
H        -5.03444662709923    4.83813083330904    6.72445510478644
H        -5.09556014620314    3.67945241133111    8.89988076212023
H        -6.28399496632669    0.21988708359562   12.25756248319910
H        -7.58276947987305    1.28038660762041   14.07917950409088
H        -8.71774536872026    3.43530136334338   13.68117901771723
H        -8.59722898178931    4.50192807378289   11.46440267924901
H        -7.30517169884198    3.45648559203954    9.65191611110844
H        -0.68634040429147    3.04207453567043   12.83116593195539
H        -0.83722654511703    5.46426393530910   13.21584381328484
H        -1.45304189332878    6.97764658539842   11.36708314901959
H        -1.95729244710649    6.05592930103679    9.13619800450194
H        -1.84328899168779    3.62198294064556    8.74999725456605
H        -1.47864103780320   -0.84721006878818   12.33199163365284
H         0.03576589652251   -1.82196360299246   14.03487198682447
H         2.24480150818295   -0.80382830718475   14.44220177699209
H         2.95610033873399    1.16460009168641   13.13999675962651
H         1.45396399435482    2.13341033238576   11.44366624597255
H         0.39252488956626    2.97000553023113    8.45469731048786
H         1.70258374399575    2.20925385348925    6.51861966565254
H         1.89775313729550   -0.19409335742765    6.01550809972297
H         0.81610172290545   -1.85623009810025    7.48498388337421
H        -0.49921580753574   -1.09788032035588    9.44008960457759

