58
CSD_code = SOZYEL | q = 0 | S = 0 | Stoichiometry = C20H30CoIN4O2 | MND = 6
I         0.32705740801376    2.80956443220101    4.96799714641220
Co        1.20201258609720    4.72776554356249    3.43364032085225
O        -1.02180698285714    4.44586354378538    1.84274333306831
O        -1.30220452628728    6.02763722809246    3.73851470369661
N         0.18554995731015    4.09083395430557    2.06122059199472
N         2.54046821274137    3.61005796372817    2.69879798153542
N         2.30222680293954    5.39763039138215    4.84595543154724
N        -0.03547948375697    5.87019937556885    4.14787485026261
C         0.77894674781724    3.22034512548200    1.28350103672945
C         2.12972408708070    2.95861770588692    1.65276193323921
C         3.88860224232107    3.43890391452856    3.18090750855651
C         3.98643318261865    3.60553780125784    4.69347447316730
C         3.65193285648424    5.01422191409520    5.16940480215027
C         1.72333396606273    6.32951459143159    5.53331966260216
C         0.36508662813520    6.59284379542772    5.14973027971478
C         1.69384987374326    6.21107963795317    2.12672014326410
C         2.39698098083718    7.33882000401277    2.74648726319270
C         3.79372019561674    7.37896052128403    2.80788228346232
C         4.45374360837861    8.42307285225282    3.42448278744550
C         3.73623174982427    9.46153922993539    3.99776640708079
C         2.35376981936240    9.45910893980941    3.91541375660658
C         1.69309164597733    8.41611667430053    3.29561341005711
C        -0.45643955065100    1.16574676212255    0.58969724819261
C         0.02931040483626    2.55378336585786    0.16714308632582
C         2.98351577408608    2.00433364715261    0.87686926320362
C         2.38511652899547    7.06722762609267    6.65165699294695
C        -0.56256053558143    7.52117871257308    5.87320602838260
C        -1.13895709609928    6.83715860022099    7.11547907969836
H        -1.39614377715187    5.38938594545774    2.91104643497221
H         4.26271938724949    2.44120054417178    2.92918315701719
H         4.53420593387146    4.18014472989438    2.68995040747037
H         3.31510356085811    2.89366719994220    5.17455204509525
H         5.00708942174027    3.37138078302197    5.00207427567845
H         4.33498489631458    5.73709383066911    4.70235069338388
H         3.80976987231721    5.05129771411646    6.25316152569841
H         2.30796183665342    5.75695979673271    1.34630112736074
H         0.75788049630025    6.55391295585785    1.67984418602530
H         4.36281714079064    6.58357839896095    2.34533028050998
H         5.53462018610670    8.43302893853837    3.45633308613211
H         4.25270872407845   10.27503759295207    4.48542497758998
H         1.78781168006351   10.28052822637862    4.33128434121226
H         0.61664248166101    8.44606513927370    3.20730007480626
H        -1.08980751848511    1.24628259769165    1.46952061849051
H        -1.03344296255747    0.71129332996009   -0.21187820758713
H         0.38054830910282    0.51426650715454    0.83061124787769
H        -0.83553842705675    3.17959348557704   -0.06400483521957
H         0.65109189807946    2.48627672771647   -0.72824285586789
H         3.20435044701543    1.12383992409041    1.48141614824117
H         2.47692307595103    1.67826109192154   -0.02451277398226
H         3.92670821370614    2.47363218801741    0.59865196973205
H         2.59518065123957    6.39026815360319    7.48093073985336
H         3.32969752077876    7.48777751536620    6.30651273233837
H         1.75896950468807    7.87242206463880    7.01771179223412
H        -0.04083139934278    8.43910403975810    6.14906604923276
H        -1.38022088421019    7.78104366051798    5.19864113316520
H        -1.83510411152530    7.50325241813930    7.61858514163949
H        -1.67024315274414    5.93288319369700    6.82990426001841
H        -0.34981008954386    6.56465745187917    7.81228842149529

