23
CSD_code = SQUIHG | q = 0 | S = 0 | Stoichiometry = C18HgN2S2 | MND = 4
C        -0.60804438000276    1.79119702026704    1.36019168643031
C         2.07546271667990    3.94176657440607    3.17385652931993
C        -1.35163276871876    1.73016595837902    2.49809000069391
C         1.73995053941395    4.21200235137424    4.46509629549408
C        -1.79429137642314    2.69846593559669    3.19120515485399
C         1.94035850646551    2.86467877438770    4.35252786104570
C        -1.55172540744745    4.00304936311724    2.86599402750676
C         2.20280064094466    1.68433022436573    3.68053620450815
C        -1.80106535345485    5.27137830703750    3.32462794790180
C         2.28034223694883    0.33750900179377    3.93243792918924
C        -1.65872744739548    6.59467452094841    3.21379113958409
C         2.52345259571440   -0.47180881301740    2.96551723721366
C        -0.95052623321523    6.26718276475186    2.13004849946513
C         2.68539799043276   -0.21379711438943    1.69783119573622
C        -0.39050238661271    5.41317817368605    1.22945051053754
C         2.68087307983925    1.06552222196058    1.23999159326716
C        -0.73710435075707    4.10221138435394    1.62460200570913
C         2.43959352267379    2.05418800400958    2.27958830873871
Hg        1.74959897014337    3.71749614310155   -0.33627229426119
N        -0.34027595027723    2.98504280076967    0.96404062513309
N         2.37226632360172    3.38678347030998    2.03300593073852
S         0.54371423720160    5.86724702838201   -0.16330618907822
S         2.95418429425096    1.52853590440862   -0.40195219972712

