45
CSD_code = SUBCEX | q = 0 | S = 0 | Stoichiometry = C22H8Cl8N2O4Os | MND = 6
Os        2.35366129471130    9.64751745818787   10.10216914134058
Cl       -1.76670040818061   12.17605661446623   10.77856168086100
Cl       -1.04471385498102   15.07089202345833   11.73374413730019
Cl        1.88263853026182   16.05544706145655   11.63485275200799
Cl        4.15096048003264   14.15092523850954   10.64776562927849
Cl       -1.11787010015433    6.28358550306001   10.76960472266045
Cl       -3.16142389215498    7.31558093816294   12.89233018512176
Cl       -2.58367152101708    9.90132983106424   14.48249021429346
Cl        0.09057615915513   11.46782506571704   14.02528630116568
O         3.11566506176293   11.45720813393469    9.87059999344614
O         0.62498223784199   10.69104659999318    9.81074193894086
O         1.83487694181404   10.13530340248249   12.01414834910768
O         1.28567577885701    8.04631556878309   10.55473277278764
N         2.76342694321435    9.07897737450886    8.26320334928281
N         4.08397568966687    8.75732809105857   10.39645613317855
C         2.22884247669855   12.30869663338638   10.28623358886777
C         0.85411986376777   11.86713425548344   10.28119323615794
C        -0.15004819647477   12.75256396643277   10.71622600660998
C         0.17581641458131   14.02639902514233   11.14610704086914
C         1.50909035079869   14.46914879017590   11.11031181921301
C         2.51802699419805   13.62879870511542   10.66848555074497
C         0.68741258891153    9.58454111801171   12.20630094479746
C         0.39218565859583    8.40736810555386   11.42397767957186
C        -0.78878042729963    7.69418623306783   11.68685409509307
C        -1.69512980629918    8.15821815640554   12.62629764409926
C        -1.42893524327521    9.32828026145847   13.35775043228724
C        -0.24528066537457   10.01835366786267   13.16734284202475
C         1.96546548519089    9.28987680736025    7.21640206528772
C         2.27545888914389    8.85709391435704    5.94347049690560
C         3.46811743269833    8.16990522126647    5.73760776724502
C         4.29706015978349    7.93945041199991    6.81770078448860
C         3.92438850302635    8.40127768128900    8.07961925690100
C         4.69049655826168    8.22866064847348    9.30399125037413
C         5.92701886303371    7.59183405184912    9.40407392985800
C         6.54795295645024    7.50274933666675   10.63427877945868
C         5.91859396308461    8.05930120743720   11.74384883986503
C         4.69453570207767    8.67422385874259   11.57851928330795
H         1.04680578543520    9.82081753931446    7.42615766326827
H         1.59963052493378    9.05214359845689    5.12695171173911
H         3.73930637482270    7.82107054861494    4.75371155873894
H         5.22456421744277    7.40612325160464    6.68933578214051
H         6.39283533133015    7.17436565339871    8.52662658646559
H         7.50408249353744    7.01331629089313   10.73195176698279
H         6.37325214732793    8.01483472764858   12.71996387660789
H         4.17145526276416    9.12752742769521   12.40962041925063

