66
CSD_code = SUBPUA | q = 0 | S = 0 | Stoichiometry = C30H29NO3P2Pt | MND = 4
Pt        4.35801971898676    3.50952910937884    1.12820591680409
P         3.56790798281734    5.61425296642915    0.91558117903108
P         3.23769438454298    2.98819488655905   -0.78685861796739
O         5.38506991824202    3.75517782400865    2.89512297537442
O         6.75892539653749    2.75211500266415    4.29544170084913
O         3.70321831958640    0.91969995697943   -0.27935489415273
N         5.05248885214454    1.65832518816862    1.34498778888046
C         5.98518795934954    1.45968238115719    2.42773878339616
H         5.68212426973419    0.63459271604140    3.08417232066987
H         6.99469662073806    1.23976138829959    2.05366687421133
C         6.06906382310152    2.74953875726064    3.29720487364998
C         4.56207192100042    0.69309065945473    0.61734590786457
C         5.01685545944751   -0.73230535378080    0.82552306971411
H         6.10085847848160   -0.79480075709503    0.75471299714510
H         4.56114971018162   -1.36277983058643    0.06796998084475
H         4.71490048349786   -1.07907381656409    1.81237251311048
C         2.26481114199569    5.62245916862511   -0.38757001206167
H         2.09725609290120    6.63772087288329   -0.76049983556598
H         1.33919467582572    5.24290686254574    0.05803376265934
C         2.74364454945115    4.69443232979945   -1.49314619229871
H         1.97349779334937    4.56988686730164   -2.26045234498021
H         3.62108595651253    5.13503583363126   -1.97566584804498
C         2.94157628185854    6.60051437661441    2.30102901559845
C         3.66793550518043    6.51068760063583    3.48692440835793
C         3.28384836672675    7.25153800236256    4.58888716060217
C         2.17379672595023    8.07854734278879    4.51464885775167
C         1.44398740002696    8.15947579775046    3.33992250041480
C         1.82266076449737    7.42287572336798    2.23088579629262
H         4.51866905853309    5.84352365466036    3.53475559428364
H         3.84614556292170    7.18042262549184    5.50772297104391
H         1.87143922149768    8.65633502357260    5.37560757425671
H         0.57428878327702    8.79846112293621    3.28711875654211
H         1.24404626963208    7.48542289753678    1.32054850063615
C         4.86297649994289    6.66919937142762    0.20115119835410
C         6.05625459920490    6.05679432260812   -0.16774641320119
C         7.07241459250488    6.80249728447769   -0.73616392097333
C         6.90040807172412    8.16378686743340   -0.93100035271238
C         5.71712675702786    8.77942093165339   -0.55330091394357
C         4.69736414441832    8.03672198023891    0.01361874377752
H         6.17395016567456    4.98818384198356    0.01346171825959
H         7.99959983581503    6.32823159064286   -1.02204503972242
H         7.69367355869591    8.74939152703383   -1.37145608458828
H         5.59246400721075    9.84250934297953   -0.69841930532764
H         3.77717421215508    8.51445096591655    0.32132838175715
C         1.54888375250751    2.44804950486935   -0.41638701941385
C         1.24964887595579    2.28195737525656    0.93186672348707
C        -0.02603545953913    1.92672602035104    1.32660180208738
C        -1.01231265509039    1.73329340259413    0.37181000242533
C        -0.72216445937120    1.91024922455973   -0.97094854462915
C         0.55266604283237    2.27673978777221   -1.36794908372097
H         2.04134595233229    2.43582791635994    1.66566951169811
H        -0.25503579944796    1.79952221111847    2.37454524524785
H        -2.00906541770122    1.44814918024337    0.67492797943213
H        -1.49435451123924    1.76475577167157   -1.71272690750560
H         0.77070185542558    2.42737968633988   -2.41577502055705
C         3.88998076428483    2.37326494272783   -2.36952903563176
C         3.31923155772095    1.31675251604728   -3.06633749963387
C         3.87622843401227    0.89894896682616   -4.26169407830961
C         5.01335897156140    1.51623974926025   -4.75722912891882
C         5.60356905371467    2.54910273264490   -4.04772999930995
C         5.04284091760565    2.97745206281744   -2.85822312204066
H         2.46055627703781    0.81108216447580   -2.65328509619298
H         3.42689266240976    0.08096404973872   -4.80625405026125
H         5.44687322110004    1.18371494685939   -5.68905322655169
H         6.50256271327666    3.01795279928862   -4.42116065494757
H         5.50640335774659    3.77463978082854   -2.29085084343262

