29
CSD_code = SUBPIO | q = 0 | S = 0 | Stoichiometry = C14H10CrO3Se | MND = 9
Se        0.18666552933565    0.06521438983041    5.90465255814024
Cr        1.28000930825838   -2.20551068298700    6.75353413180528
O         4.24831778023059   -2.25195099651264    6.90353610625274
O         2.55276903320824   -2.05703289957752    4.05616715332393
O         2.20315641704748    0.08859876409626    8.45572807215731
C         3.09473843133475   -2.27848026903652    6.86715424873267
C         2.02576025379798   -2.08675869519625    5.07512679718412
C         1.79895545765726   -0.74143914720529    7.77408478550112
C         0.79827415121143   -3.84609407519318    8.17775765454118
C        -0.21065570093139   -2.86837848443659    8.29075813100695
C        -0.88127908787538   -2.79074424784952    7.05185618059070
C        -0.27323724446594   -3.69875680213547    6.16300934729089
C         0.76519046277153   -4.35761181747252    6.85777591240733
C         1.47379074924769    1.18734908154999    5.03340486011631
C         2.84106899855855    1.01070188736190    5.18072113092057
C         3.71589841122698    1.86388479300829    4.53129363990441
C         3.23571980136608    2.89508648499360    3.74239469000609
C         1.86895431685774    3.07478416510798    3.60328068744235
C         0.98797552377476    2.22557385706648    4.24425602999325
H         1.40270627665637   -4.22997284856234    8.98719593859566
H        -0.52082452351076   -2.37986215331383    9.20390738729995
H        -1.77219420196214   -2.21002595732438    6.85221394978025
H        -0.63532033403624   -3.95150768831148    5.17636118386300
H         1.32690612924113   -5.20867842216497    6.49866497992877
H         3.22950056000008    0.20967893642886    5.79886878696019
H         4.77975500427524    1.71810520870743    4.64650941259902
H         3.92421670409265    3.55660691522223    3.23864568793293
H         1.48705392907309    3.87857908534009    2.99121466803429
H        -0.08147213644940    2.35374161856413    4.14272588768635

