62
CSD_code = SUBRAI | q = 1 | S = 0 | Stoichiometry = C28H24ClN8Ru(1+) | MND = 6
Ru        4.79614388889542    1.92768844057382    4.24407947411047
Cl        7.00952638301140    2.76477766383677    4.06923067817129
N         4.61344863976641    3.41291995621056    5.56295936074392
C         4.12949675993622    4.63156818550906    5.32741556529654
C         4.29245099583023    5.69114185459744    6.19917273765092
C         4.99522903315109    5.48514013294687    7.37927377521365
C         5.49142767673417    4.22186249778365    7.64032093112918
C         5.28734743654163    3.19812238721924    6.71657619439598
N         5.47839497830300    1.00549335889067    5.85010212899667
C         5.75514982556029    1.82423415740460    6.88955170898427
C         6.41451168231625    1.35388672784922    8.02464090516738
C         6.79060893510329    0.02649564417317    8.09454631597855
C         6.48365390717252   -0.80827764627082    7.02725730937517
C         5.83229789466551   -0.27581865255940    5.93195202146325
N         3.03681327254032    1.05406891151995    4.42220702267906
C         2.10831314257555    1.35252608886749    5.33506653282194
C         0.91570874012250    0.66876956869982    5.45057388166553
C         0.65530311297296   -0.38278864410677    4.57775313913500
C         1.61703960074716   -0.71520923657524    3.64288090618184
C         2.80536111090374    0.01155444636414    3.58631415213976
N         5.02811898567789    0.44320833278263    2.93605375241546
C         3.91729098658323   -0.29071826788253    2.69081263385558
C         3.89464120083693   -1.25445137434950    1.68388550316837
C         5.03312654021825   -1.47699707704935    0.93102319425261
C         6.17303344921737   -0.73303141707223    1.20950597701549
C         6.12457487827737    0.21394660044091    2.21584037067594
N         4.23800465196031    3.06758465353914    2.53968134231867
C         3.05475175423281    3.46380090708745    1.97276417593632
C         1.69865258584303    3.15178863030464    2.48254526617496
C         5.16322869436878    3.57801260945272    1.74094936427371
N         4.57112820630971    4.25235996883591    0.74572405896456
N         3.24544158314253    4.17642150128247    0.89645484565191
N         4.29060798296189    5.56772641556341   -1.11718591953479
C         5.15310550441952    4.96889459579594   -0.31712639028626
C         6.53371081826033    5.02516830714361   -0.48308896266922
C         7.01212682992611    5.75960300788432   -1.55702252231128
C         4.75695272999147    6.26375877172988   -2.13527415190790
C         6.11337975193507    6.39300993357650   -2.40220273493989
H         3.59431285553762    4.76658787272399    4.39561146002381
H         3.88749776828393    6.65881173570307    5.95227959190435
H         5.15552693747194    6.29241606996125    8.07557944344563
H         6.04806451650114    4.03568587298109    8.54342246754193
H         6.63855246044653    2.02326741991558    8.83820857138987
H         7.31238127171210   -0.35135987078709    8.95899046641722
H         6.75461122816838   -1.85118555983151    7.03887119693329
H         5.59142073184484   -0.90146125479079    5.08012894139587
H         2.33475694745710    2.18260894158474    5.99399816011851
H         0.20164424066110    0.95327906973392    6.20570632168672
H        -0.27016025944629   -0.93206451114211    4.63454042025648
H         1.45403085500830   -1.53746991507393    2.96607864865339
H         2.99642438344445   -1.81654310984410    1.48849311635787
H         5.03373693263591   -2.21626928478568    0.14610807807140
H         7.08452456759107   -0.88212670197091    0.65441416134582
H         6.98903930277298    0.81581259198343    2.47082669374169
H         1.62823211755237    3.34518399282310    3.55114544852315
H         1.45342652342121    2.10588071060329    2.30124693195870
H         0.98505574308886    3.77270494888461    1.94871561007782
H         6.22047705086015    3.48292408246461    1.90086156600729
H         7.21157304090575    4.52689252548618    0.18991178810243
H         8.07532185509683    5.83444956460566   -1.72757410562682
H         4.00813789509279    6.73451731274821   -2.75618328057281
H         6.45600688288759    6.97181555401278   -3.24409624210315

