67
CSD_code = SUBYUJ | q = 0 | S = 0 | Stoichiometry = C30H34Cl2Ti | MND = 12
Ti        5.92490653985739    3.35758924779250    3.02534394567004
Cl        6.43812971136399    2.71476414942235    0.96149906384640
Cl        8.02281967318433    3.79598772863586    3.48769738194055
C         4.24600810276015    2.84129775628832    6.51402298481258
C         5.32710392548939    3.59996170516087    7.30799449182007
C         5.89626573872784    4.73371348108876    6.44093912169717
C         4.82076870835568    5.47172675066117    5.59800274399978
C         3.44366327910303    5.30154319117675    6.25820073407040
C         3.05077741127352    3.81822354817366    6.37269647034281
C         4.70956049426023    2.22222599848443    5.21946822373315
C         6.02686929699960    1.93116794681360    4.85663313819848
C         6.06998891554046    1.30296446084347    3.56981165626464
C         4.69971406202032    1.10600194719015    3.17527742928419
C         4.14722278252964    0.47663870576884    2.05416768777873
C         2.77964098482610    0.33759979628737    1.97783693656580
C         1.95728637730380    0.78652463966127    3.01583901183612
C         2.47686787214508    1.42282000948697    4.12202343787198
C         3.85932675455062    1.63388907365059    4.21092455975717
C         4.88314446598934    5.14483860927438    4.12398056966182
C         3.95363000577116    4.48313786675413    3.28309270887742
C         4.35202566359376    4.60778209619735    1.93640724173395
C         5.48105124772444    5.48904790344120    1.89533060164140
C         6.23390751641514    6.01539481598555    0.83534598452210
C         7.26727685212450    6.87437288239772    1.12418220125015
C         7.57381380307342    7.22561503657460    2.44764862851093
C         6.86475254032378    6.71400902598088    3.50813260670581
C         5.80773867347585    5.82699495066518    3.25086286092006
C         6.46069529721372    2.77807460948199    7.96522823658099
C         6.94958070017757    3.50014788655741    9.22360698571488
C         6.04293854681505    1.35674948214266    8.33816776424952
C         2.32558527800774    6.13356605504523    5.59565530267579
C         1.05342013476596    6.08212757070891    6.44418759490316
C         2.73722647870081    7.59320252458098    5.39882532355806
H         3.88140072468806    2.00693087065182    7.12739065760473
H         4.78145295329485    4.05522944943899    8.14296202633608
H         6.37543463774870    5.45717220179267    7.10349642369628
H         6.67207984213860    4.35364306901550    5.76838286073670
H         5.07151922592622    6.53688862846088    5.65940734470616
H         3.55840631152042    5.70462703665637    7.27201200393484
H         2.44189821904601    3.54398679450715    5.51691134985849
H         2.42382105161698    3.70244483109401    7.25942478004553
H         6.90433047675365    2.03908013619738    5.47714486511408
H         6.90854833692733    0.72070722165482    3.19570414891139
H         4.79398787405669    0.08598840651179    1.28041723648485
H         2.33332072979851   -0.15351469415209    1.12619931182042
H         0.89225397898400    0.61744694211364    2.95336278036830
H         1.81247881353894    1.71302582494194    4.92291116036856
H         3.02799725790124    4.01081406750173    3.57793831940465
H         3.77999035731887    4.27606120367591    1.07694579188910
H         5.99137958939585    5.75341719542942   -0.18575120806426
H         7.85480126344828    7.29575870763806    0.32210595565893
H         8.38771904755888    7.91149862868859    2.63044379661722
H         7.12025286434209    6.98666044417755    4.52290058745955
H         7.31429983056788    2.71823185341258    7.28352008736266
H         7.79714996188978    2.97268779807958    9.65499504467540
H         7.26615774397752    4.51442846975449    8.99528966601582
H         6.16040400196209    3.54372628288857    9.97178142986146
H         5.18710766031259    1.37142790538973    9.01002175364351
H         5.79249300914481    0.77102717505192    7.45742042045611
H         6.86270866447078    0.85833079623024    8.85103138505947
H         2.09502966335330    5.71935928660337    4.61029516363615
H         1.24717690621356    6.46678435023366    7.44345684612279
H         0.27618475387373    6.69271419692109    5.99035963399453
H         0.67289000648802    5.06843204885624    6.53220181374844
H         3.10856817784750    8.01832034055894    6.32921967238414
H         3.50351974187129    7.68835287999272    4.63388990389411
H         1.87752848755853    8.17820819765508    5.07977335519499

