36
CSD_code = SUCCAU | q = -1 | S = 0 | Stoichiometry = C7H15B9IO3W(1-) | MND = 9
W         3.02432994626633    3.13585216163721    0.74426273059229
I         2.75831673425682    4.00883677419294    3.50460956580273
O         5.93303339648218    4.35030770961682    1.00742394841378
O         3.76675876336232    0.37616887796494    2.08693944172360
O         5.68328617165482    1.54418753380664    0.11626972018842
B         1.17973993070300    4.47768809264496    0.33414831662159
B         1.75213530642306    2.04679074701533   -0.82210081274437
B         2.80719995806424    3.32884374861102   -1.52694934383569
B         1.38713325580134    2.71131436881596   -2.43335604506553
B         1.72953736953904    4.44663614804187   -2.41365179095903
B         0.69090500195655    5.20138410379358   -1.22535516612536
B        -0.31012990884422    3.95180308328119   -0.50768462698003
B         0.07989583689227    2.43286809258813   -1.28300799013437
B         0.05803445665904    3.90238218594067   -2.24886795041654
C         2.32450237904359    4.78185832035065   -0.82477517500237
C         0.76682582851225    2.84172855978504    0.27500517950120
C         3.28344227803144    5.97389952845521   -0.71027427629032
C         0.13054152893372    2.12792404055080    1.47788099941565
C         4.85144151672627    3.87714750843648    0.96822787346742
C         3.50157771419187    1.43563157438825    1.64962301862861
C         4.70938532092273    2.16272294518348    0.40397106127268
H         0.99919725710403    5.18033820834956    1.27023599890937
H         1.97931815681152    0.88076949714060   -0.69493418217571
H         3.88594138906452    3.24347881477100   -2.02829733032814
H         1.52550795872614    2.05755024301424   -3.40793677718194
H         2.18841072608385    5.07085903013299   -3.30461386227945
H         0.42157799711428    6.34980892209361   -1.27069154432311
H        -1.36006393787461    4.13384074435019    0.00005463661631
H        -0.70852762865871    1.55384406505801   -1.30898296814422
H        -0.75887754778640    4.09970492740037   -3.07758784662318
H         4.29524599557907    5.70656407077097   -1.02752824748382
H         3.34316858301342    6.35306194165194    0.31595230903734
H         2.95952090853765    6.80536469090849   -1.34155908789890
H         0.74522925065414    1.29657266084830    1.84126161058271
H        -0.84774571547354    1.71566958916591    1.21885506294784
H        -0.02589617847477    2.81779648924243    2.31153355027030

