37
CSD_code = SUCDID | q = 0 | S = 0 | Stoichiometry = C9H23ClOP2W | MND = 7
W         1.45378971553021    1.23887482185217   15.26035709614347
Cl        2.43582788896055   -0.40217804855268   13.63417430752285
P         2.97894169127919   -0.08342348466474   16.59105679790003
P         3.02372740493371    2.55086608093089   13.97579064668538
O         1.36982644285397    2.42572923801578   16.45346170871343
C        -0.19276884952837   -0.29696877400881   15.43986360824780
C        -0.67032606236121    0.94201932536917   14.91988921514480
C        -0.15740125744439    1.45802205398077   13.69334847604868
C         3.02100212008453    0.48555331547921   18.33048942218106
C         4.77301928757450   -0.32718495197182   16.25443550168171
C         2.48652691416646   -1.83848790357192   16.79615010090944
C         3.03038260518994    4.29811668471176   14.52140987510984
C         2.60775985428104    2.72722486622988   12.19836290851573
C         4.82954729502357    2.22460991668909   13.81828453854631
H        -0.68005094357561   -0.64722052781392   16.34924898696718
H        -0.03463552542662   -1.10810989843508   14.72174523613252
H        -1.34332455680771    1.55903372998089   15.52607951371673
H         0.00306837783241    0.74062479429497   12.88191207156951
H        -0.61885150233938    2.37902365850848   13.33838298851494
H         1.99889495103516    0.51406453712013   18.70577754123994
H         3.63114335505660   -0.16932787191444   18.95265662102833
H         3.41712308801402    1.50007352319405   18.35350031532492
H         4.88753733335880   -0.70725068991351   15.24071576923429
H         5.29644559234594    0.62244041590896   16.34702946488320
H         5.19204832055649   -1.04297211136265   16.96100605443015
H         1.48372695148059   -1.88534693459148   17.21729331785728
H         2.48309550559342   -2.31293626752474   15.81560558700946
H         3.18435009943582   -2.35960843678900   17.45128856535274
H         2.00990677422876    4.67573622513437   14.47484121683722
H         3.35619193612957    4.33382519858207   15.56027268753517
H         3.68497020244443    4.91057042567262   13.90123119221064
H         2.63635446145079    1.74071727386264   11.73737175420795
H         1.60335542754482    3.13565597639723   12.10117786105530
H         3.32075317526321    3.38392137499069   11.70041359791699
H         5.30653215290513    2.33705079175260   14.79016035607095
H         4.96905102090499    1.20585812229669   13.46110179887253
H         5.27705875202344    2.92250355016065   13.11141329868246

