73
CSD_code = SUDKOT | q = 0 | S = 0 | Stoichiometry = C40H28ClN2PPt | MND = 4
Pt       -0.06900751168862    3.01259177104554    2.74501777159916
P         0.76530274751103    2.42527831369420    4.75923168415134
Cl       -1.31147911945215    4.67204835235494    3.85490705018188
N        -0.78407183937650    3.50916134499736    0.90582185979540
N         1.34406559641868    1.12233437575345   -0.68207748161762
C        -1.68525096485759    4.45433129469663    0.66287295062369
H        -2.07414775001894    4.98063777282758    1.52654111646485
C        -2.10761314618631    4.76166161529150   -0.61929258753324
H        -2.84243005860105    5.53655446038989   -0.76850983319636
C        -1.57121705559099    4.06332941061271   -1.69292860702920
H        -1.88068749588388    4.28476050490338   -2.70342306308338
C        -0.63404958645535    3.07935375066146   -1.44177713984821
H        -0.17530719970195    2.49879641288975   -2.22547891655366
C        -0.25903113307410    2.82130278892616   -0.12728697119358
C         0.70790355944961    1.79774071836530    0.25315569437070
C         0.93013035123838    1.65415991233604    1.64866674994075
C         1.79320326016038    0.64309598090676    2.01359483283664
H         2.04966307193053    0.50753224407024    3.05306011162695
C         2.42093045671889   -0.17181560213873    1.05489149094795
C         3.34832070646815   -1.21290457447589    1.38338954821084
C         3.45165119140613   -1.80175048015804    2.68892734830920
C         2.41029598810675   -1.78198150287451    3.63573344758460
H         1.43732568167482   -1.41199577426689    3.35449233000921
C         2.58405760273179   -2.29640368469186    4.89543756591603
H         1.76559676551275   -2.27197432358569    5.60041326126290
C         3.80312149850990   -2.87051820505421    5.26505993534813
H         3.93882819640535   -3.24718106351029    6.26845102294160
C         4.79483681573951   -3.00846925055835    4.33023483466900
H         5.71330418292113   -3.52269471121835    4.57653389521734
C         4.62848756489425   -2.51962405058866    3.02287378971821
C         5.58954737515185   -2.79409908849142    2.01517417628122
H         6.48125998073275   -3.34008930115298    2.28845200084272
C         5.35523011934491   -2.44226967744763    0.72679530008651
H         6.04129598045418   -2.72722210393902   -0.05817188637595
C         4.23464445432316   -1.64328879764355    0.38082691224960
C         4.02100292131348   -1.26140557678579   -0.97122071037729
H         4.68459493174530   -1.66508593881950   -1.72288861275702
C         3.00695251748733   -0.43185312304611   -1.31839788429545
H         2.80998995352094   -0.16452889386533   -2.34470215909570
C         2.21814926858382    0.18059412339504   -0.30931665887352
C         0.55302514866431    3.52299196354624    6.19287912543364
C         1.56588094384773    4.36708922196887    6.63095420071138
H         2.53150994232941    4.35066597591190    6.14447408112737
C         1.33405787059614    5.23009218494188    7.68814303239627
H         2.12314422197651    5.88567280981244    8.02706512334246
C         0.09405288890627    5.26165496116927    8.30273344814209
H        -0.08531068012476    5.94256908317489    9.12180221766903
C        -0.92107925714123    4.42698223807878    7.86110681428808
H        -1.89244897726976    4.45978678961553    8.33215454710773
C        -0.69535996993711    3.56133520965146    6.80921606911003
H        -1.48690759867188    2.91953805445107    6.44634864863979
C         0.08399858351225    0.86169539802429    5.38558738173957
C         0.29613661883922    0.42496098463874    6.68999185957251
H         0.86217063594871    1.03823196471488    7.37832018350022
C        -0.23734341151570   -0.78126617356612    7.10676262126748
H        -0.06951797315776   -1.12253161530421    8.11814455313749
C        -0.98948777821076   -1.55055050903080    6.23200318422105
H        -1.40217477567504   -2.49250539993441    6.56231286740928
C        -1.22398037934382   -1.10670929924324    4.94044949553997
H        -1.82429796762959   -1.69919452333383    4.26594504242804
C        -0.69075684305904    0.09821624017952    4.51929095076268
H        -0.87428775085885    0.47562240606721    3.51567930708561
C         2.57184949863810    2.18885231276102    4.69385004564604
C         3.27275148784523    1.19095577707909    5.35735640467424
H         2.75546892094075    0.49783500707308    6.00393201704708
C         4.63635386816246    1.05996965904821    5.15742586466046
H         5.17505837942051    0.26858171139641    5.65744179915156
C         5.30458740129348    1.92712563266675    4.30974236606841
H         6.36706456827346    1.81481400244392    4.15290588191064
C         4.61015278683293    2.93146288600782    3.65231688651262
H         5.13095519653087    3.60349180058602    2.98641934683818
C         3.24708216522263    3.05572048806161    3.83734043266295
H         2.67315235521481    3.81143333352371    3.30482003080771

