86
CSD_code = SUDQEP | q = 0 | S = 0 | Stoichiometry = C32H49IrO2P2 | MND = 6
Ir        2.06461825200416    3.90204671110556    4.68961096709847
H         1.64851998600930    2.39586364911008    4.81987661073438
P        -0.02555507703466    4.43174663694145    3.77429810990400
P         3.68532952611372    3.42464819524415    6.32063095865969
C         0.98283288880768    4.34709313785366    6.41904225673789
C        -0.15723995415612    5.15434452781909    6.37249811458163
C        -0.84085350965435    5.50037268937225    7.52922335874682
H        -1.71295452034724    6.13890861547907    7.46927865184017
C        -0.41654737749860    5.02853577554661    8.75809816560233
H        -0.95041142000829    5.29720674050736    9.65819534540829
C         0.69180350330506    4.20398740616645    8.82548875789189
H         1.02085200114565    3.82038229867083    9.78305852895741
C         1.38484710503295    3.87060502888451    7.67088247856254
C        -0.62849845562123    5.63718980319664    5.02784926244708
H        -0.13979611787627    6.59164872773314    4.80420687444860
H        -1.71133329227179    5.78201942252556    4.99256716266825
C         2.58330316978483    2.96156876130887    7.72504507597746
H         2.25591325204586    1.93306775641607    7.53702138819082
H         3.08874599016151    2.99568091341044    8.69315747026794
C        -1.33683544714820    3.04055630512231    3.83902050120279
C        -2.72974102012886    3.43971535580167    3.35321596148320
H        -3.41739634525576    2.62017001349134    3.56368030626713
H        -2.76008192045868    3.61942886029762    2.28250082654168
H        -3.09961308970106    4.31699401777290    3.87936754968936
C        -1.47057031847481    2.60366172993179    5.29972382637122
H        -2.10564543889915    1.71989367815859    5.35588139625794
H        -1.91823408943190    3.38055286546472    5.91336696627950
H        -0.49927011558828    2.35356633875760    5.71596250350669
C        -0.83476163485774    1.83890979456407    3.03795175172075
H        -0.82088294065762    2.03016712711072    1.97001049320859
H        -1.48226935678993    0.98147084665061    3.21764279677956
H         0.17027922413220    1.58331221869098    3.36316505265483
C        -0.26338422303691    5.38944797565033    2.13495193750104
C        -1.50841583648764    6.27825601933670    2.11537399247646
H        -2.42542907244650    5.72835009003353    2.28831054536436
H        -1.58444426609467    6.75035907055647    1.13538395636048
H        -1.43021660640116    7.06937418001560    2.85672360424156
C         0.94704093587067    6.30673135877931    1.95490107991365
H         0.80298195102350    6.93781728461144    1.07756126780776
H         1.84963504769613    5.72227792596429    1.79510369336731
H         1.09307126586051    6.95986640874572    2.81078012805116
C        -0.26900356015268    4.42086598756556    0.95154068690925
H         0.55382361585597    3.71256691695091    1.04466526228821
H        -0.13427511513074    4.97603619820366    0.02278228535321
H        -1.20444680315352    3.87429228371656    0.87456440641801
C         4.73058973387422    4.81566234432505    7.11309423034072
C         3.75259216007824    5.81927072832162    7.73189437031318
H         2.98493030873440    6.11994778089030    7.02494253420211
H         4.29956483142436    6.71428007292643    8.02830844501900
H         3.26392003932873    5.41644817300929    8.61509974900449
C         5.67349055316983    4.34080651374014    8.21979797051595
H         6.05573760944397    5.21493405015843    8.74768070702879
H         6.52942421636578    3.80334082936076    7.82015728394734
H         5.16189620170577    3.71793793308891    8.94945171606705
C         5.55066556485859    5.54997580039794    6.05030839766876
H         6.15066816323550    4.87405384897077    5.44692827086248
H         6.22321815632179    6.25675986074012    6.53670373541785
H         4.90447029495798    6.11914141733360    5.39157213787393
C         4.78923908216033    1.87281540501149    6.11474683186762
C         5.20246815319921    1.20165421685635    7.42632709708564
H         5.87756943159345    1.80805947980933    8.01749088792635
H         5.72078391893709    0.27155948815643    7.19164527864378
H         4.33490957208718    0.95078387294808    8.03075734963412
C         6.02413713547303    2.22422355524415    5.28468415667459
H         6.52772552537030    1.31080320532053    4.96774875911267
H         6.73956080567069    2.81581817180275    5.84992026649783
H         5.73233817970994    2.77361014800237    4.38932297316659
C         3.97995009334617    0.84712781244613    5.31849112143686
H         4.56202998192300   -0.06652150513022    5.19880647829123
H         3.73756516746098    1.23319538977399    4.33296525631853
H         3.05141327191080    0.59552679263709    5.82427756261390
O         2.37342241141508    6.87564870465326    4.89777186230620
C         2.65727657642183    5.79987856958011    4.45098948302040
O         3.77185589090247    5.89979397470129    3.44790729539930
C         4.03603029632938    4.81375550749281    2.75050879600217
C         3.20217695785217    3.66310439132504    2.97165937659413
C         3.16798867893938    2.60457205225663    2.05402131220524
H         2.44979889437052    1.82831721452992    2.29651066091545
C         3.84165494708633    2.38723897355151    0.85971088118517
H         3.50376293025946    1.53370277993623    0.28185913970094
C         4.96599772260349    3.03350010769561    0.36248698508414
H         5.40719829553371    2.61266778942987   -0.53214868907817
C         5.61315087287118    4.12627990242052    0.91463760405540
H         6.53299099538498    4.43348562969716    0.43231019446614
C         5.19030805086070    4.92327961843147    1.96035274438405
H         5.78693753671480    5.80120174884149    2.18053646957803

