91
CSD_code = SUDSER | q = 1 | S = 0 | Stoichiometry = C48H38CuN2P2(1+) | MND = 4
Cu       -1.81096781935779   -5.04266664407588    0.21215652790446
P        -2.70352715586760   -5.52802886037819    2.26631132723031
P        -3.03177019574573   -5.17396568088661   -1.66019973063429
N        -0.44344825174333   -3.64830225348264    0.85048534909913
N        -0.12064697001469   -6.25588789829134    0.23490748351489
C        -3.38778488132817   -4.28746546255147    3.40542009484237
C        -3.82917803774784   -3.08400886044632    2.86497585031184
H        -3.73912268338186   -2.91827576623708    1.79826081707059
C        -4.37392723862452   -2.11156216174799    3.68434270594647
H        -4.71846214388016   -1.17964507107306    3.26173850091532
C        -4.47562716923349   -2.33663167499852    5.04731030609621
H        -4.90059149839207   -1.57971763662601    5.68859212045733
C        -4.02940719147813   -3.53162391909597    5.59153589985253
H        -4.10808711989253   -3.70327111861509    6.65459903270594
C        -3.48467144272089   -4.50745581636416    4.77778913402138
H        -3.12950632660076   -5.43740152790157    5.20100598160826
C        -1.37955428400611   -6.28357864267619    3.25558467201745
C        -0.49848306720189   -5.43887591728988    3.92995589175244
H        -0.70252523942845   -4.37608497415197    3.96925557177250
C         0.61502565927732   -5.95736139874759    4.56192013086634
H         1.28486797807601   -5.30015266896143    5.09628044739102
C         0.87229004777739   -7.31821998987389    4.50836467476937
H         1.74365665466513   -7.72201152931259    5.00068102159338
C         0.00655345753192   -8.15991973080604    3.82959587145289
H         0.20293979130236   -9.22112453049110    3.79250982515024
C        -1.11364064916686   -7.64783625767067    3.20006170306194
H        -1.79031928832278   -8.30736683765453    2.67441212296758
C        -3.98645513613716   -6.81585126459998    2.17679363147971
C        -5.09070425232458   -6.88511603185178    3.01581517059009
H        -5.20894065504616   -6.17662448494758    3.82274320535239
C        -6.04760578433459   -7.86336909877503    2.80638624355362
H        -6.90620144511547   -7.91764577656779    3.45865470482407
C        -5.91270381239548   -8.76639795759435    1.76540799468427
H        -6.66602187886772   -9.52248388988994    1.60621254114207
C        -4.81489497257585   -8.69575855772736    0.92205577257639
H        -4.71467344780895   -9.39707197864941    0.10662707514642
C        -3.86059253402717   -7.71872209754890    1.12318400892616
H        -3.00601514481841   -7.62497780969846    0.46134992535162
C        -2.45091068657420   -6.36459051115682   -2.90494808576848
C        -1.68909203351101   -5.95961426176574   -3.99583602824851
H        -1.50365982040140   -4.90790357929287   -4.16270691482878
C        -1.18106757326371   -6.90286385850796   -4.87184679798909
H        -0.60019054816372   -6.58357461030234   -5.72399265885872
C        -1.41645322699502   -8.25118615370074   -4.66027019083433
H        -1.02113395065818   -8.98332503877980   -5.34756254773838
C        -2.16193473986196   -8.66067400153564   -3.56532215627983
H        -2.34652556341323   -9.71199489000104   -3.39965597047697
C        -2.67135312496319   -7.72401993563385   -2.68623300661978
H        -3.26333530495088   -8.03730557520318   -1.83612978206143
C        -3.11991184695734   -3.61500926693747   -2.59297577438612
C        -2.07085470735503   -2.71557002739242   -2.42349794316021
H        -1.26647304147523   -2.97080070773081   -1.74338425882260
C        -2.06181596241854   -1.52205784953551   -3.12159609878927
H        -1.24529609522878   -0.82664874075250   -2.99462232204707
C        -3.10408801306815   -1.22022286510117   -3.98377785740405
H        -3.09965709856897   -0.28837213776713   -4.52832321151692
C        -4.15378911187531   -2.11075434727891   -4.14677820266670
H        -4.96476348989092   -1.87091656084828   -4.81772974777085
C        -4.16733681532814   -3.30834942735684   -3.45454267855486
H        -4.98686510982512   -4.00156331122119   -3.57905685654985
C        -4.78047242140527   -5.61335129978947   -1.41097361391338
C        -5.53511658529427   -6.34508240114361   -2.32220176379270
H        -5.09158222551770   -6.68558062580453   -3.24748143083057
C        -6.85612423577469   -6.64124157535571   -2.03653798852395
H        -7.44046100061764   -7.21097444482526   -2.74351529127881
C        -7.43088346446435   -6.21051394626698   -0.85172323244251
H        -8.46053757738626   -6.45002200864245   -0.63464750760382
C        -6.68618167192442   -5.47086995773134    0.05275111867310
H        -7.13179919618734   -5.13102332718110    0.97545964370270
C        -5.36642074202779   -5.17553992533203   -0.22718999424414
H        -4.76753633457625   -4.60704926916081    0.47579902181497
C        -0.62586397600898   -2.38027875450400    1.15387909735401
H        -1.53249863911444   -1.92312373136516    0.78163325640169
C         0.29095503593583   -1.64124931453308    1.90258254494191
H         0.09070709321655   -0.60521052381507    2.12322108398239
C         1.44413523408626   -2.25240262765142    2.33886659283645
H         2.17939216351286   -1.71028842791316    2.91464479239449
C         1.66585028906426   -3.60352795675173    2.02557847913848
C         0.67361535866801   -4.26754300215092    1.27258583589860
C         0.84650166055848   -5.65042454246143    0.94233521041467
C         2.00626753391015   -6.33023290614428    1.37161580981163
C         2.12196741892617   -7.68706286078859    1.02895633885177
H         2.99219592657595   -8.24373928217506    1.34329737898669
C         1.12588674516015   -8.28235771789823    0.29088615863541
H         1.18813781367990   -9.31912232404041    0.00218092798187
C         0.01789692301626   -7.52152526026134   -0.08724295652172
H        -0.77560064599882   -7.95497195101306   -0.68178126946513
C         2.98823729978204   -5.62800404766740    2.12682538156414
H         3.86719140966066   -6.16786937890700    2.44525452181758
C         2.82506196045722   -4.32027396476188    2.43997671120290
H         3.57091084361896   -3.79166320799981    3.01447062627698

