55
CSD_code = SUFJIM | q = 0 | S = 0 | Stoichiometry = C18H24BF2FeN7O2 | MND = 6
Fe        0.63668794738502    5.05403033687213    3.02494713394738
C         1.67896946268062    4.38503610291290    1.59657148824886
F         2.10102722252154    3.08145495354061    1.61368814185766
F         1.33815325934769    4.58681632954624    0.28667361547348
O         2.80402763616800    5.20059961111177    1.87658677287323
C         2.34700332787675    5.83062939027541    2.97673895126160
N         3.17573496605559    6.64586670077321    3.58336947197373
C         2.64169344094524    8.76197621692990    4.73896273337137
C         2.73542853532878    7.24150269929735    4.84110363518949
C         3.62068426708409    6.79175492138820    6.00191844065551
C         4.42574450790493    7.64504848583690    1.71002653091453
C         4.51593064808975    6.98183202469970    3.08274010418696
C         5.42564301961542    5.75480989670858    3.05652739120171
C         0.14724484229306    6.36361656335170    1.99213396414132
O        -0.06546781893844    7.28626839240314    1.34435978977917
B        -0.98628024435976    3.48108709180925    5.13006537429698
N         1.33199209825708    3.68484518927093    4.26295355294028
N         0.49996538992673    3.11787980580578    5.13879269784722
C         1.17251387827733    2.27989136021645    5.93584035529808
C         2.50022168119244    2.30301176561286    5.56253234159531
C         2.54633254437580    3.20525079947999    4.50329202402336
N        -0.89334144375409    3.88954485495374    2.69180359664850
N        -1.48171025110172    3.24490855537200    3.70186616001344
C        -2.45279426081906    2.45079800768641    3.23154840700815
C        -2.49367019191115    2.58863675473483    1.85995251190945
C        -1.48770101927500    3.50904824515710    1.56997791988487
N        -0.37772423163771    5.83137728066611    4.58824903528084
N        -1.06672240245928    4.99497563887126    5.36751389859246
C        -1.83968923500545    5.68535516844911    6.21580625537410
C        -1.64821865257034    7.03005026056597    5.97598166627726
C        -0.72219255529063    7.06623608171668    4.93582252358770
H         2.04539570948427    9.03844133119386    3.87308900638477
H         2.16060967856056    9.15564026241218    5.63006455059016
H         3.62119093133765    9.22534573628090    4.64978389224858
H         1.73291277670298    6.84097125727011    5.00595499020864
H         3.65781601021423    5.70559922637900    6.03935494604129
H         4.63381173050171    7.17653939019130    5.91494948038160
H         3.19983454951051    7.15296493664495    6.93621931040015
H         3.75699368191580    8.50195970837581    1.74524315648482
H         5.41176446895669    7.98456095737248    1.40277071124804
H         4.05297089456916    6.94346032588578    0.97045018636503
H         4.93532752267701    7.70490207472058    3.78748967290894
H         5.45629653026042    5.28050343598550    4.03511159452840
H         5.07397151838043    5.03495049100587    2.32415976669327
H         6.43458404208180    6.05727701887912    2.78686136753311
H        -1.60223456254641    2.87103532928935    5.93216186175894
H         0.67649434821743    1.72545627039059    6.70637759128826
H         3.31249762995205    1.74982515885118    5.98674950209091
H         3.39112437437797    3.50073025313766    3.91428689820250
H        -3.04466201210451    1.84582643556916    3.88831079845523
H        -3.15015609396968    2.09804648121622    1.17160378352025
H        -1.17393789965769    3.90153250654061    0.62397128063314
H        -2.46812088069591    5.18873101972732    6.92669066255347
H        -2.11003768663168    7.85835864259606    6.47209094674965
H        -0.30853363029768    7.91550226406679    4.43030755707695

