64
CSD_code = SUFJUA | q = 0 | S = 0 | Stoichiometry = C22H39BCuN | MND = 3
Cu       -0.58087034827419   10.90077003326375   13.74502507033277
N         1.17866016091892   11.01007924509656   11.49930136814617
C         0.01423924581417   10.83108885270943   10.68365298232042
C         2.52044977165387   11.16337774465491   10.88815740780851
C        -0.72551531839121   11.95053593429827   10.27734085493018
C        -0.39642591818515    9.53782844129622   10.33402863256513
C         1.11229507997289   11.09230445847392   12.80095964544344
C         2.49924362410273   11.37381523630517   13.34321395853977
C         0.18658802211486    8.29851670414195   10.97290797970415
H         1.06008809934392    8.57648616865939   11.56625841875121
C        -2.12869499795195   10.49708322021089    8.95828732210395
H        -2.94771670040806   10.36928521157705    8.26661711527099
C        -1.46274936935935    9.39603448065143    9.45603029816581
H        -1.78784675240897    8.40788609687116    9.17191369642905
C        -1.78331035458271   11.75835452192302    9.39816291354477
H        -2.35807685467247   12.60875989285362    9.06736103820870
C        -0.50485194589860   13.33363444108238   10.84681934546896
H         0.38949926041858   13.32816542522847   11.47483601436238
C         3.43305750534056   11.26582297204697   12.12010820906765
H         4.08490564139096   12.13392512325720   12.04426452687791
H         4.06583804709075   10.38316023123357   12.19998502574076
C        -0.33973170507458   14.40602978051704    9.76685504673146
H         0.44156033932011   14.14457464103511    9.05722170762850
H        -0.07911073935319   15.35556744181429   10.22977068539600
H        -1.26516881920055   14.54702017664938    9.21526930005196
C        -0.85232523772052    7.71304621383614   11.93582955434212
H        -1.16439060310160    8.45988040615658   12.66240335828435
H        -0.43037023618120    6.86222190152916   12.46737608244002
H        -1.73556769754085    7.38112472992933   11.39661442679334
C         0.60768722696584    7.23912355074366    9.95144050268823
H        -0.25822293963161    6.81468370275417    9.45088361994685
H         1.13026121270873    6.42971147813409   10.45705395327457
H         1.26811102126701    7.65512156147665    9.19420775191949
C        -1.69114939012122   13.68586416270964   11.75122357528713
H        -2.61129979199410   13.74906410876190   11.17657210116058
H        -1.51822425231727   14.64501344266546   12.23527698197117
H        -1.82442138872519   12.92737347226989   12.51879409306878
C         2.45843971882655   12.81669579101389   13.89920187369091
H         2.26095150002150   13.50128964460564   13.06989573418283
H         1.61818994235643   12.89518023169366   14.59287710709033
C         2.86594033332058   10.38427695970324   14.46255483031369
H         3.92083710357912   10.51303847653197   14.71179420330903
H         2.27344122427981   10.62917532339475   15.34585403125924
C         2.87131384252013    9.96700991284216   10.00629482896620
H         2.91161631394026    9.04589579063243   10.58029864177140
H         3.84822521929737   10.12928871821720    9.55617229714808
H         2.13992130860243    9.85598104426699    9.20910844754416
C         2.58195808665756   12.42231262788243   10.02308440844203
H         1.84373291033378   12.36691285509884    9.22666077926828
H         3.56808302757011   12.50064816481459    9.57086100224434
H         2.40526094634555   13.31963603125403   10.60930291118017
C         2.61007831350099    8.92480908879753   14.10168674621341
H         3.16541959582037    8.62648536309167   13.21438376703238
H         1.54987143305868    8.75701608368510   13.92474105804469
H         2.92243180768131    8.28260355860987   14.92202254859897
C         3.73209335577081   13.25821797732763   14.61102959327846
H         4.60998609082619   13.11082796835227   13.98583799925044
H         3.87288994939533   12.71033706197964   15.53810110890787
H         3.66248811931315   14.31635047990151   14.85297002756718
B        -3.67030337312660   10.40306370736792   13.54029656055380
H        -3.87637614468886    9.37047833048657   14.05447729185907
H        -4.19667104540432   11.35725487960924   13.97091557448745
H        -1.95200888796542   10.71544168010697   14.34799064200666
H        -3.38775358894964   10.40083704193170   12.39876142070916

