60
CSD_code = SUFKAH | q = 0 | S = 0 | Stoichiometry = C22H35ClCuN | MND = 2
Cu        7.24445528685608    5.83415427315025    7.10295079527957
Cl        6.62108892698512    3.86401644447359    6.94801056602796
N         6.88092274103019    8.61447172518722    7.45422656854761
C         4.72708248995062    8.37843261323381    6.31506761594650
C         5.46827668516374    8.39126442734237    7.50440100844797
C         9.12621706694867    8.23656626660352    7.17246445956960
C         5.37689436171755    8.32311695585459    4.95159950203640
C         4.84760653772026    8.15456745308871    8.73770267607952
C         8.94957650607419    9.72829786633282    7.52325447331240
C         9.57354953459518    8.04895883837215    5.70370289390701
C         7.73622673280028    7.64991956293958    7.26609770926576
C         7.43509678533579    9.98432902900309    7.56717928320542
C         5.63729383379663    7.85319724135862    9.98988509826873
C         2.71014840603954    8.17235434219543    7.62269037450687
C         3.46241017501112    8.06434717985150    8.77488859940528
C        10.09783007412956    7.51046802266647    8.11816133968735
C         3.34382988780051    8.28625679888563    6.40189491198799
C         4.80689507175755    9.35062289839148    3.97126314934880
C         6.96524329320564   10.85594444052332    6.40228596398940
C         5.54111233028922    6.34804821210768   10.26412278600452
C         9.57064761204171    7.35215230687812    9.54019406645320
C         6.99782193922999   10.65439201506380    8.86809485750931
C         5.16122619003350    8.64483843655857   11.20940334016360
C         5.20144486071763    6.90710576862142    4.39151211917383
C        11.01505467073455    8.45781269354723    5.42372883465933
H         6.45022728958476    8.49614030207050    5.05623012814457
H         8.90808624784105    8.63311638877456    5.06319429478140
H        11.03916285234240    8.06171974633294    8.14235807069590
H         4.14924510103219    6.66887110328115    4.25978705209846
H         2.96658594148817    7.89109085228002    9.71660434434512
H         9.44072307051274    6.99775910733062    5.43816235380605
H         9.42601812715280   10.36624529907988    6.78181150329618
H         4.83488277031714   10.35509438083633    4.38694683619019
H         7.39698202832077   11.66556245999241    8.90071177537182
H         7.36285505709977   11.86107719301547    6.52182345694233
H         9.40100645381920    9.94848186772792    8.48916793886221
H         9.33607596139957    8.31391712926160    9.99203209300140
H        11.21439390755581    9.47211186043611    5.76225530804015
H         6.68948852324281    8.08378545895947    9.81442769351947
H         5.63542488263454    6.17412524612197    5.07169061762521
H         7.36575220053902   10.11657842963870    9.73677327044756
H         8.67524198973165    6.73402548370060    9.54304826879549
H        11.71453558220882    7.78673987596824    5.91285245846298
H         3.77740771804560    9.11657432314513    3.71485991435446
H        10.29122727748801    6.51672468076210    7.71143173824576
H         2.75472470533558    8.28665266444066    5.49866601021599
H         4.17118324397251    8.32520947481918   11.52242468108381
H         5.70077460519698    6.82162698641593    3.42901183907775
H         7.30842287948484   10.46631044654765    5.44831875848568
H         6.14782027798715    6.08541691072212   11.12801954094263
H         4.51288840913876    6.05474942580347   10.45943714435728
H         5.12550034647277    9.71125732519399   10.99907567932059
H         5.87970476583254   10.91599468675855    6.39120782723584
H         5.89865987410402    5.78158887118112    9.40395565304556
H         1.63304755912198    8.11723347347106    7.67117349210291
H         5.38914611409356    9.34281725226007    3.05244563420851
H        11.20088998692643    8.41525691664378    4.35306467397412
H         5.84255261539504    8.48042876132740   12.04135646564450
H        10.32186972869610    6.86674712805301   10.15854452507920
H         5.91313990591914   10.71103267541393    8.92054596541467

