62
CSD_code = SUFVOG | q = 0 | S = 0 | Stoichiometry = C21H26BrN2O9P2Re | MND = 6
Re        1.68987727387835   21.37501885973926    0.86003825297568
Br        3.52885360119082   23.16019711537228    1.12196557533081
P        -0.31429697704882   25.47073443269180    5.76478723409697
P         4.37289220624763   19.45312524683194    6.70840300253924
N         0.73544160238846   22.54511141359325    2.37524750237015
C         2.86170141808799   20.37120287276041   -0.34070763549657
O         5.03467802656311   20.85470444903248    7.06973623908930
O        -0.56331612474313   19.26541777298173    0.79022876539702
O        -1.62003595609141   26.30342734498521    5.31680859684283
O         3.16953060116079   19.37131338747434    7.77727726080817
O        -0.41451807278367   24.83581723275042    7.07270638361610
O         0.87457244759987   26.51915987105548    5.71056025931705
O         0.60538324863543   23.02359430037418   -1.52542338976044
O         5.22675917832046   18.26387814253394    6.70724645871303
O         3.62460021716318   19.82586560526712   -0.99513592232285
N         2.48036853102811   20.59486811029806    2.69009716348014
C         0.98566406364037   22.36549425345575   -0.66966187586984
C         0.27514358932147   20.04670835533983    0.80400516657060
C         3.61226022303290   19.90733357484485    5.12388083158351
C        -0.10912108170273   23.54707412206685    2.13742368165060
H        -0.48644714312439   23.62775293672500    1.12572116152557
C         3.93726846301906   19.20870529973907    3.97078245337564
H         4.64248996451212   18.39425320818430    4.01562430995188
C         2.61906412899634   18.09413582155451    8.06437644292301
H         2.07965556083394   18.21267258798663    9.00749300066905
H         3.43435370245265   17.37512377675565    8.19371943369862
C         0.02508925252276   24.32353242683155    4.38190701662741
C        -2.86868813936553   25.91681928226955    5.87592991211763
H        -3.53273443765686   26.77182294515805    5.72494896416267
H        -2.73744384772413   25.73841385341859    6.94721921565197
C         1.22558844149407   22.39251919815847    3.62235768230307
C         2.71160515111442   20.95101224563960    5.04390384159700
H         2.45650722793725   21.49193179400824    5.93952394579637
C        -0.48693258508277   24.46305914627429    3.09956305097326
H        -1.15592789989477   25.27251117416704    2.85489633370051
C         0.87953115031044   23.27106166226065    4.64575658705955
H         1.27068656784259   23.16929980766857    5.64471881822412
C         2.16346233136180   21.28122141566933    3.80661734168276
C         3.34435241914413   19.58540249905111    2.78157146485793
H         3.57213783340035   19.06144085051377    1.86183557711068
C         5.99080067292101   20.91184080874660    8.13223949550229
H         5.70764214223377   20.20848505368793    8.92144187221177
H         5.92893560452188   21.93163745981395    8.52296789499928
C         1.69120099388623   17.63018195597419    6.95509990339256
H         2.26310638020871   17.49202960090051    6.03827622575421
H         0.91267502239900   18.36914988813198    6.77802008225830
H         1.22901663023055   16.68574268012547    7.22856499671714
C        -3.41785780241251   24.66778056304384    5.20917637010940
H        -2.73516425161230   23.83709777558157    5.38113891601177
H        -3.52972975877800   24.81948326526010    4.13782479710556
H        -4.38718242119394   24.42046074246832    5.63289593866449
C         1.32838500489751   27.21187946625834    4.55126385495599
H         1.44415837520064   26.51032890076426    3.71783775883306
H         2.31608657298782   27.59303074395383    4.82620765286993
C         7.38717470234741   20.60226972051777    7.62312680696577
H         7.65659051039789   21.29422441528072    6.82919762157709
H         7.41483458661393   19.58949594039512    7.23028405494727
H         8.10386572183539   20.69266549846207    8.43491122995426
C         0.40543587234625   28.35233341624308    4.16099926884511
H         0.83028453763820   28.89007041958858    3.31742435355978
H         0.28771645422248   29.03636654779237    4.99731369754608
H        -0.57413170868780   27.97060674165204    3.88713710226585

