78
CSD_code = SUFXAU | q = 0 | S = 0 | Stoichiometry = C36H32BIrN8 | MND = 6
Ir       -0.57159394898037    4.72644566683069   12.62855543844246
N        -1.86176863016660    3.48498129404329   11.25355900830885
N        -1.52872992133552    2.19632410296250   11.10018802461472
N         0.77487030407442    3.85731187457449   11.44870688408308
N         0.90011330019115    2.57819172846351   11.10161552484734
N        -0.60150016472988    2.78020020996189   13.78739078056227
N        -0.21306962107420    1.67950449741784   13.13258587864704
N        -1.89827132569943    5.60177149236842   13.40193613528824
N        -2.79882543569009    6.17074258827267   13.74278153695070
B        -0.19104304218545    1.61452051344142   11.60372244793811
H        -0.02250245877012    0.51123801448411   11.21198655833822
C        -2.53474834620247    1.54115637751237   10.50482934418833
H        -2.46036548534800    0.49451329682884   10.28796558889154
C        -3.55991759145179    2.43040138369249   10.27025630234552
H        -4.50209092079813    2.23965000668372    9.79924057264147
C        -3.08553104534301    3.65721781071875   10.75609370982757
C        -3.74249141071034    4.95970224671662   10.74570949092756
C        -5.08235576084068    5.08123421847711   11.10188171132150
H        -5.64142978435086    4.20073190756139   11.38417357283173
C        -5.68902734838691    6.32139288715341   11.11660013888903
H        -6.72781799093972    6.40415958020715   11.40368363233065
C        -4.98144141342385    7.46778747957081   10.77345102114042
C        -3.65027518270720    7.33814382135171   10.39859354243127
H        -3.08465895618760    8.21416837607640   10.11542005124640
C        -3.03544286198189    6.10167841623407   10.38023089591887
H        -2.00601521336366    6.01615183480102   10.06673212377112
C        -5.63749133300438    8.81348732864763   10.82833520224615
H        -6.69019509666762    8.74470595859247   10.56277165995107
H        -5.14715586915814    9.51295716385692   10.15541389926283
H        -5.57190242226819    9.21433240858615   11.84036329281161
C         1.74992653979412    2.49606329318312   10.06476772790753
H         2.00093796691933    1.54942719158633    9.62935570374938
C         2.16730988938798    3.76752458236169    9.72506851056071
H         2.84041037426421    4.04069596191389    8.93890251688536
C         1.49327101277980    4.61534593497080   10.61606035578112
C         1.21912462982189    6.03479907220995   10.72249209158016
C         1.86539441924596    7.01958882249004    9.98555939120090
H         2.68925296899988    6.75111847332708    9.34024742637903
C         1.44846141249001    8.33181861362949   10.07977189217510
H         1.94956649541480    9.09956143686783    9.50756306609610
C         0.38208550724791    8.67527021692975   10.90267081789784
C        -0.25119068456250    7.68342362179098   11.64567300242203
H        -1.07747804085739    7.96984620943244   12.28194886054590
C         0.13968592901409    6.35548806150503   11.57255014115971
C        -0.07080215901723   10.10182095770730   10.98902889724696
H        -0.31584133023901   10.48508869711226    9.99908761949592
H         0.72320557191184   10.72546367108208   11.39840697128464
H        -0.94589006184695   10.19344339792907   11.62699382982392
C         0.16931669900995    0.73979877725018   14.00795905415389
H         0.50830998590016   -0.22044870331979   13.67488208501880
C         0.03923767970770    1.25241627792189   15.27913774963957
H         0.24847774040989    0.76857762396404   16.21074061978082
C        -0.45511794064586    2.55045971702551   15.09222919501061
C        -0.76019445311433    3.55064845835174   16.11040876504482
C        -1.97315414717266    4.23074966272969   16.10427056328853
H        -2.72327499907591    3.97538486515068   15.37046713278044
C        -2.22729704223231    5.21110674193906   17.04272776858942
H        -3.16928498032285    5.73969356421833   17.01856088947638
C        -1.28515038455175    5.53084647565636   18.01260904497433
C        -0.08999882436988    4.82348149181519   18.03583219191184
H         0.64958948219644    5.05076255562376   18.79031655174488
C         0.17160167505724    3.84205577986025   17.10074500645909
H         1.11356840677147    3.31430275279446   17.11762381136135
C        -1.56897700633733    6.59831698755847   19.02516676262688
H        -0.64708215788271    6.97245011143156   19.46355895150480
H        -2.18942104394310    6.19865578787230   19.82820004617280
H        -2.10626809995188    7.42682011456699   18.56884241433436
C         0.78570307313846    5.45010947192309   14.00386417211275
C         1.95658837865209    4.72333544468518   14.20227373278353
H         2.18696971598118    3.86044241788752   13.59107858481201
C         2.86404775211482    5.07040532394757   15.18995364847874
H         3.76164487906065    4.48142052052273   15.31927770095765
C         2.62435854586853    6.15905197260836   16.00669694825569
H         3.32915168727213    6.42737730446597   16.78029788652503
C         1.47316085653628    6.90049573446065   15.81774068406510
H         1.27034199060642    7.75656997835314   16.44504145204022
C         0.57071464852953    6.55276562374520   14.82671004810317
H        -0.31361758047228    7.16215446269797   14.70776374474109

