76
CSD_code = SUGMOY | q = 0 | S = 0 | Stoichiometry = C36H32MoO5P2 | MND = 6
Mo        8.29118272529510    8.02379334911386    3.98779834816562
O         8.21878090153363    8.11158719064574    0.89930517422625
O         9.56863272988443   10.80295574585334    3.58481630774291
O         8.36604674233967    8.48038247779769    7.04461609097931
O        11.25259149401432    4.88474836566718    3.43913222025307
O        11.13866795507024    7.03031845478394    4.72323749378819
P         6.07222985011134    8.89357018777339    4.07286343824528
P         7.05920001431850    6.04854432873186    4.46919191138277
C         8.23610005141296    7.98925931447060    2.03737843292491
C         9.13828841277599    9.74861519797890    3.73923579973584
C         8.36639785885466    8.25153163420733    5.91793566383139
C        10.05056231398351    6.91439597430700    3.98953483387673
C        10.18472546233578    5.69930374892470    3.21353934277919
C         9.41142245587803    5.14486551092453    2.21225872925050
H         8.50821488870852    5.53917770058190    1.79485321425410
C        10.04535785546958    3.95035372705281    1.82565084112631
H         9.72279386507629    3.26295935608392    1.06998925457597
C        11.15698959913876    3.84693826613440    2.61274508274461
H        11.92576715076472    3.09996797888031    2.66621514733600
C        11.35457265588052    8.14113718871286    5.56666274056851
H        10.90041208076454    7.93674993958463    6.54351400693212
H        10.88212191843988    9.03220275198599    5.13457577802558
C        12.85605466720569    8.33807673984536    5.71797752878163
H        13.05251292220844    9.16987577745099    6.38794974861857
H        13.30209135626821    8.54922525441097    4.74959735453699
H        13.31193008916624    7.43800616408535    6.12213668182210
C         4.88761315345616    7.64418114633133    4.77046934518552
H         4.13699134663596    8.13706951727467    5.39769437317586
H         4.38261715308673    7.14935830847166    3.93439726254066
C         5.66399038319201    6.59347484340436    5.55621108692854
H         5.02382219500107    5.74484350732126    5.82825762676443
H         6.07661501851920    7.03300511059511    6.46973187961252
C         5.62807166880614   10.37688877965715    5.03849094758776
C         4.31185913652703   10.83498668356306    5.04937202709509
H         3.55617708730607   10.30574540861419    4.48224157027407
C         3.97790412559382   11.96695531386166    5.76635351242250
H         2.95647996451809   12.31965814173304    5.77273777379711
C         4.95376356659615   12.65451261434476    6.47248997823902
H         4.68962065212242   13.53954324988809    7.03258437552977
C         6.26520290141697   12.21287388114005    6.45143235806994
H         7.02755599361407   12.75367104172916    6.99276019901721
C         6.60334016721381   11.07856004396572    5.73275835541854
H         7.62842879253533   10.73403189109233    5.70141524515695
C         5.33903813438369    9.41238343775683    2.49063699370754
C         4.26519252391999    8.84080899471589    1.82130503205355
H         3.71370714810773    8.01506669865383    2.24869489625730
C         3.88682875022409    9.32487487136125    0.57939287273956
H         3.05124721714935    8.87226008428949    0.06437207140242
C         4.57036738542597   10.37727776979384   -0.00239853155418
H         4.27122894696994   10.74610435776225   -0.97239994925157
C         5.64306159453362   10.95429742830890    0.66080737773205
H         6.18241348319643   11.77401291802478    0.20961074727588
C         6.02482522588561   10.47182578552963    1.89567115554123
H         6.86891329824468   10.90641217962567    2.42095309986398
C         7.86743906316284    4.73822623521394    5.42700936768859
C         8.30567876315878    3.56972376274343    4.80794013434442
H         8.04216324995549    3.37866643867919    3.77675398520034
C         9.07685799167732    2.65693043056474    5.50299219839299
H         9.41381029692637    1.75610725656044    5.01025551682194
C         9.42299394087624    2.89895727699384    6.82190620637557
H        10.02989217834550    2.18752329964923    7.36229631357739
C         8.99381284456242    4.05953272705323    7.44448835128422
H         9.26443123499297    4.25366873647547    8.47240196028551
C         8.22846138968935    4.97806138513107    6.75031823784186
H         7.91380640048361    5.88857947592843    7.24121164607269
C         6.03379319272967    5.11492341488388    3.28607207752888
C         5.40865016922856    3.92214638707842    3.64255023737831
H         5.58868905294689    3.49079389285416    4.61856393827404
C         4.56495727246345    3.28868547694725    2.74950986555723
H         4.08789941146952    2.35991673826115    3.02778946354880
C         4.32474138734401    3.84376385685314    1.50166603782453
H         3.66443344240923    3.34460562124326    0.80776560315401
C         4.92573137147189    5.04030393046201    1.14978936770441
H         4.73269870917556    5.48451398975027    0.18407410921958
C         5.77615529001815    5.67238783109133    2.04018980334781
H         6.23807831592246    6.61535550075935    1.77560072949158

