39
CSD_code = SUGMUE | q = 0 | S = 0 | Stoichiometry = C16H15MoNO6 | MND = 6
Mo        3.68801857855409    2.40486930316068    1.39081116278995
O         2.04113624545786    0.14673055184553    0.03666069363116
O         5.47040341175358    4.65339892073482    2.58153250813525
O         5.55708206894547    2.40492263404595   -1.08631238902237
N         2.65209988830020    2.40454460896024    4.36510846846356
H         1.90637720539924    2.40472787292681    5.06177974614112
C         0.11564511233886    2.40474673257559    1.77223109672044
H         0.44916879018809    2.40473608031497    0.75403607333718
O         0.07166946049132    2.40475923701882    4.00198261674876
C         2.33576401463306    2.40427151998336    3.09142487197049
C         2.61728691249633    0.98128939980811    0.55758807955427
C         4.87263935072711    2.40460353270245   -0.17348112190315
C         3.96756084449111    2.40465203948936    4.95413352361390
H         4.70149123329299    2.40460327597216    4.14318191303747
C         4.79442947337155    3.82521128952662    2.18001626866383
C         0.89884944432343    2.40460850780883    2.90761605934007
C         4.16572870289637    3.65980307400518    5.80856414349788
H         4.02294159895072    4.54758756501661    5.18869808630010
H         3.42209243196720    3.67935029103017    6.60999681090939
C         5.78995780275485    2.40475946805767    7.25024422389711
H         6.80376569892269    2.40478351750635    7.65311259925708
H         5.09561574992348    2.40477610125957    8.09389317863057
C         5.56780737696036    3.65904174229426    6.41039213950437
H         5.70311177292770    4.54971000813664    7.02605915723584
H         6.30354931999703    3.69417233011837    5.60456888705012
C        -1.22652057145334    2.40472649943636    2.19782504494781
H        -2.09970447008819    2.40467960924563    1.57875278679960
C        -1.18728152470333    2.40475087554941    3.56083458658845
H        -1.96573862011317    2.40472012430170    4.29931671112358
C         4.16577437929218    1.14956272711325    5.80861909131768
H         4.02305726813931    0.26176238106828    5.18875789262763
H         3.42210648153903    1.13000176263326    6.61001963044639
C         5.56784560665105    1.15042360207094    6.41046193528526
H         5.70315670427754    0.25979309898817    7.02618054323589
H         6.30360618619382    1.11526683163229    5.60465591417120
O         2.04169560919905    4.66355971201298    0.03697805015721
O         5.46939760815656    0.15516453461051    2.58117203574357
C         2.61678783062472    3.82712248558354    0.55609449515956
C         4.79562502221612    0.98570615145434    2.18059248489045

