55
CSD_code = SUGNIT | q = 0 | S = 0 | Stoichiometry = C27H20MoNO5P | MND = 6
Mo       -0.62775808191857    2.00771516041687    8.36313068416940
P        -0.64197019900895    3.02794955120198    6.18772025689306
O        -1.52679124820241    4.66222312636943    9.68303813914389
O         2.31520292784846    2.91088621467433    8.72744232889621
O        -4.54480344263641   -0.05813533134127    7.99936552517131
O         0.34432858595898   -0.70941829852878    7.23631174458359
O        -0.62669810088999    0.72847800677319   11.17368447089614
C        -2.67034349047409    1.50057734438795    8.10575176286655
N        -3.58833892529990    2.38310837160974    7.74526758990005
H        -4.56720434550580    2.13361673261343    7.64366845746190
H        -3.32675887402380    3.34196021754698    7.56772493596323
C         1.23564352960035    2.56019017368235    8.58835991511815
C        -2.03464599663910    0.98549234596456    4.88922299148229
H        -1.99215363545306    0.47958220299388    5.84603438521042
C        -1.20623944195144    3.68951020542268    9.17412656624036
C        -0.63311779614518    1.20284805901522   10.13345593028112
C        -2.66377219738646    4.95144039565310    5.71082123421110
H        -3.21315476579373    4.18022207170868    5.18528451568793
C         1.89561065705891    2.30602138515084    5.44177515654055
H         1.64088393899613    1.39229455274098    5.96505119846900
C        -2.11584732078536    2.28139528342165    2.44231109091359
H        -2.14443265097609    2.78469472761490    1.48678651392961
C        -1.47236219444534    2.24845129215690    4.75932270195287
C         3.13174285793059    2.43971882497705    4.83848699211215
H         3.84603345955076    1.63124273168993    4.88877076987403
C         2.53444618986428    4.64553910992229    4.11379384543925
H         2.78317343998152    5.56124446344199    3.59686801519191
C         1.29345483714798    4.51355886377963    4.71166098900472
H         0.58682399626754    5.33070723245739    4.66003227271377
C        -3.68326924449436   -1.95157712805037    8.78722648640602
H        -3.60054712999001   -2.97078299040831    9.10400954087008
C        -4.79416932992844   -1.33624188455891    8.28843064404971
H        -5.78667044716335   -1.69744267219200    8.09822020040903
C        -0.69869980206886    5.68280950846108    6.88820416479954
H         0.28275794305603    5.46078646494658    7.29212732664645
C        -1.50787402630032    2.89050200143945    3.52270696976681
H        -1.05848478218534    3.86804807902592    3.41354847838139
C         3.45482700518597    3.61316021463215    4.17648535457275
H         4.42329069922439    3.72368470372386    3.71161256183242
C        -2.64077325393081    0.37636624326850    3.80345881983255
H        -3.07586301861750   -0.60656030136774    3.91202449623919
C         0.96840840938599    3.34311650658737    5.38991841719247
C        -3.23117532561001    0.18655768255211    8.30585501595395
C        -2.67124440153748   -0.97330230496990    8.79889655221165
H        -1.66421367711990   -1.10436195006597    9.14037352266386
C        -2.68515732391974    1.02437670614116    2.58116716792742
H        -3.15810899255601    0.55010029246895    1.73392131914971
C        -1.25920266065010    6.93418353304859    7.05149680634845
H        -0.71533743575211    7.70437607287256    7.57790518634719
C        -1.39006348897858    4.68466619325028    6.20247077067634
C        -0.03879488514938    0.29983380188149    7.61463343351434
C        -3.22505008471073    6.20618711696235    5.88302979544628
H        -4.21388950464330    6.40801826926821    5.49671165323531
C        -2.52490639235900    7.19759612416225    6.54860958648539
H        -2.96634056185987    8.17398469940143    6.68148474872922

