124
CSD_code = SUGQOA | q = 0 | S = 0 | Stoichiometry = C59H55N9Zn | MND = 5
Zn       12.81666138395996    4.75824233761588    5.40312931793253
N        14.64944295099000    4.46688736003844    4.62165622844245
N        13.60454054275418    4.43602603906576    7.23161825044359
N        13.08854283895779    7.16085237694478   -0.40923692871334
N        16.90539197539444    6.81449252507695    1.22392593231295
N        12.81681979768100    6.87389788873294    5.40127697768599
C        14.94783809396795    4.60999238253883    3.32912353793534
C        16.26031717703764    4.13766236893719    3.05638605954467
H        16.73011810533851    4.09952870198778    2.09328872686212
C        16.76437222693797    3.70041233034307    4.24826497660578
H        17.71806818125980    3.24376326487411    4.42333450736278
C        15.76130805990151    3.94674188811858    5.23332594406955
C        15.88596079649631    3.77041281538075    6.61284152731418
C        14.88394409973356    4.07796500122768    7.54541240797013
C        15.06556269051456    4.16288761205813    8.95714292851062
H        15.97213525301276    3.94536771152440    9.48646761607417
C        13.88479648270701    4.60926379986256    9.47970706466547
H        13.65176271665095    4.77638567684414   10.51232729539347
C        12.99647145841546    4.76457850271421    8.38141267526789
C        14.02213290026123    5.14294281810255    2.35424165914237
C        14.49653249828386    5.96668968658016    1.35777828680304
C        13.69088661653768    6.59343041490292    0.38731184363227
C        15.83593459307212    6.40343034494512    1.30182088257143
C        17.17116096512876    3.28718955643340    7.13867718443422
C        18.35240586335363    3.95674194376500    6.83628602844543
H        18.29192318642208    4.84810183539317    6.23442000189368
C        19.56674952141172    3.50228572110506    7.32731466000345
C        19.56277447023853    2.36258957617601    8.12431940700717
H        20.50198446692466    1.99768929860579    8.50823453396798
C        18.39798508125164    1.67585426045546    8.45051497983531
C        17.19833453658730    2.15629679966630    7.94908439031747
H        16.26538321964147    1.65772946368887    8.15275124561112
C        20.88618943557802    4.19353781781141    7.01824348589560
C        21.55680811401711    4.61296867146989    8.33379750415921
H        20.90231197006696    5.27699329915694    8.89456016008828
H        22.48661857251471    5.13848277754167    8.12767981690297
H        21.78591279684249    3.75363377613229    8.95776599772693
C        20.70701732644394    5.44515286220952    6.15482079979433
H        20.26152740440623    5.20164362536806    5.19309961219344
H        21.67898189642204    5.89654738739468    5.96730774734807
H        20.08688002272405    6.18299922223418    6.65873931537481
C        21.79189206984797    3.21355361125560    6.25915094995371
H        21.99898052175461    2.32428036557840    6.84819080623486
H        22.73942421768421    3.69035837571245    6.01842785039757
H        21.31671271954929    2.90406870147340    5.33057743794851
C        18.48162032793202    0.44504830997902    9.34064433141574
C        19.37857543233568   -0.60286265733988    8.66725454157655
H        20.39068334363514   -0.23270752882322    8.52953924822888
H        18.97743434587526   -0.87001922935039    7.69180236256261
H        19.42695016656863   -1.50149844765043    9.27834339923694
C        19.07845799788331    0.85115574816041   10.69557682800445
H        19.12863781420566   -0.01192750024606   11.35573213280153
H        18.45822961761769    1.61024400535802   11.16767994319827
H        20.08205402618357    1.25232998204909   10.58522091324095
C        17.11226184233817   -0.19089716656420    9.59443373395920
H        16.65345229947718   -0.51818830943904    8.66428851330070
H        16.44343827842988    0.50396607445934   10.09717269062560
H        17.23169945449825   -1.06287604992975   10.23418287305005
C        13.92524629353880    7.55517285397033    5.66848503216737
H        14.80343202167253    6.96326472628616    5.88444451314152
C        13.97514533624273    8.93843241749120    5.67521858584180
H        14.90001320570568    9.44656508049245    5.89689469415804
C        12.81802243298817    9.64704662804435    5.39260713694571
H        12.81853622831673   10.72654952137528    5.38953624413437
N        10.98381894968283    4.46680332230415    6.18441786067676
C        10.68544568959585    4.60909720986283    7.47704649955358
C         9.37306011293494    4.13633433807759    7.74954960071124
H         8.90331853544814    4.09748960005437    8.71264616398075
C         8.86903265751835    3.69973221698586    6.55742638290816
H         7.91541572882988    3.24301414343639    6.38210674147742
C         9.87204561410126    3.94673137254765    5.57247439654353
C         9.74739715778076    3.77088473763272    4.19289663176390
C        10.74939523563764    4.07886246233525    3.26042818763527
N        12.02878303920883    4.43666708429731    3.57445062367397
C        11.66024795169245    8.93772381124029    5.11465532114680
C        11.70896957368336    7.55446787745127    5.12986885397476
H        10.83025791852261    6.96196718274751    4.91807746546553
H        10.73581103849798    9.44534504877386    4.89049967943452
C        12.63681083031259    4.76612207949082    2.42489032890821
C        11.74846542708932    4.61166307788166    1.32650564975771
C        10.56772817299449    4.16482923626199    1.84876591786502
H         9.66114978215796    3.94768866425266    1.31929852637342
H        11.98150179845044    4.77956606575501    0.29400982234830
C         8.46227952190023    3.28774314533187    3.66681247374860
C         7.28088403806687    3.95690902680483    3.96947130915998
H         7.34114727825918    4.84800305373428    4.57175614114543
C         6.06665950219194    3.50241046281184    3.47818741631823
C         6.07089822470723    2.36303489259621    2.68072068253492
H         5.13176635015977    1.99805065019860    2.29669250002382
C         7.23585347157539    1.67674380814315    2.35418087073787
C         8.43538356265778    2.15725352149500    2.85582760454886
H         9.36846247424527    1.65902640229258    2.65191190908668
C         7.15247867030739    0.44608351725550    1.46382876883087
C         6.25794487096856   -0.60302388781990    2.13858089198481
H         5.24579732036079   -0.23382692917514    2.27859921221983
H         6.66136853885152   -0.87024326155309    3.11307571083428
H         6.20916343772716   -1.50142108644047    1.52717596474372
C         6.55298577204726    0.85147265210193    0.10985450959558
H         6.50361107663303   -0.01152074057118   -0.55047772766728
H         7.17108230186754    1.61191241912756   -0.36287134843603
H         5.54872807854477    1.25058643483413    0.22162330451939
C         8.52228877627632   -0.18798055824006    1.20776994103676
H         8.98270634631164   -0.51555061580039    2.13702040916135
H         9.18961120830202    0.50816049783190    0.70479603773931
H         8.40309118931970   -1.05955233396047    0.56742451156078
C         4.74709831967963    4.19347240092518    3.78716373182687
C         4.07774854778114    4.61466335533356    2.47152101009682
H         4.73270875359465    5.27960719344519    1.91238827889308
H         3.14762302800256    5.13970829439573    2.67740990980114
H         3.84951742675300    3.75615380317738    1.84609136593216
C         4.92581941870012    5.44395637009593    4.65231737818307
H         5.37080260608219    5.19915820436209    5.61394757769899
H         3.95376200228923    5.89512359951726    4.83989428529846
H         5.54622345569817    6.18247573431417    4.14972080562903
C         3.84048773390277    3.21280590391265    4.54428064908445
H         3.63326403971627    2.32449710683074    3.95384307622137
H         2.89304396830113    3.68972136284107    4.78513294657749
H         4.31496156136166    2.90174126079420    5.47268508793059
C        11.61111396581454    5.14131058361834    8.45238824954352
C        11.13674147709562    5.96391035643984    9.44984019687147
C        11.94249056951104    6.59002643465650   10.42063429423910
N        12.54345245217029    7.15500461689638   11.21981971393282
C         9.79687520220509    6.39901402852733    9.50832748650479
N         8.72782796083202    6.81183753336009    9.58143885745687

