83
CSD_code = SUGQUG | q = 0 | S = 0 | Stoichiometry = C42H38Cl2Ti | MND = 12
Ti        4.44958967584936   -0.13492959115204   13.04734925110250
Cl        4.74211245585926    1.49211239434104   11.53803014356067
C         2.74469421897191   -0.90790160093952   11.50145819602823
C         2.17483278437404    0.07309625390435   12.35357827367192
H         1.70810720953379    0.99681294171718   12.04088160444337
C         2.18612848491314   -0.41634093061330   13.67616334491797
H         1.71304689363405    0.05663779247095   14.52754939102556
C         2.80910952983194   -1.67984357176224   13.66806176788210
H         2.84420222373972   -2.36903938585272   14.50138906727651
C         3.14646597785542   -1.98289450431122   12.32648544337451
H         3.50103167507387   -2.94554902495782   11.98275987002608
C         2.71831708920303   -0.94406565781921    9.99001521159348
C         4.12468672084187   -1.24977832788911    9.45839194002908
H         4.83570211310313   -0.54982920512549    9.89999872934912
H         4.42543729672759   -2.26859512393376    9.69756058761209
H         4.15362796159097   -1.12343744356301    8.37993887348826
C         2.25065612911312    0.39186199839361    9.40815231442962
H         2.92109281896394    1.18747326367799    9.72264076772147
H         2.25476583393194    0.34530094835411    8.32144604621261
H         1.23994564398194    0.62706759685505    9.73274193719238
C         1.71826459566537   -2.07767402232290    9.56667944962480
H         2.08007990756728   -3.02603112813730    9.97454316567799
C         0.31787258989503   -1.76965688824180   10.03679077457430
C        -0.19277921985733   -1.73178608862366   11.31755617355081
H         0.41241942462114   -1.99234196403640   12.17195739886216
C        -1.52191207184774   -1.36974067569179   11.49761213202015
H        -1.93097756114935   -1.33557194038920   12.49675397438918
C        -2.32962455279328   -1.05621516535867   10.41622702462042
H        -3.35790434824602   -0.76974695048695   10.58230703046748
C        -1.83572261729338   -1.12789846922111    9.12383448305864
H        -2.47153799618223   -0.90994903776681    8.27872628759077
C        -0.51303778489125   -1.49289662039302    8.93970909491730
C         0.23898037435172   -1.73757247857359    7.72051352913500
C        -0.15754639547339   -1.68844503874404    6.39509289611973
H        -1.15084654758341   -1.35978279203363    6.12825363335377
C         0.74149622172014   -2.08286458547697    5.41759884025477
H         0.45243567961186   -2.05031608800681    4.37728891340748
C         2.00080652466930   -2.54443406274753    5.76481405439399
H         2.67813863410653   -2.87968370171314    4.99288933821051
C         2.40392464641438   -2.58909879983044    7.09358293575436
H         3.37994292731146   -2.97823744682663    7.34167940586920
C         1.53221708757932   -2.15736084520773    8.07203861576128
Cl        4.15646984090421    1.49192524747116   14.55659143232348
C         6.15447746012646   -0.90808239831994   14.59310747698298
C         6.72433742494439    0.07307150270630   13.74117609763687
C         6.71314654264604   -0.41620592465794   12.41853400076363
H         7.19107076192254    0.99673460158373   14.05403839333567
H         7.18625183623272    0.05691887807061   11.56723980084777
C         6.09005944791523   -1.67965768084101   12.42636167373150
C         5.75272338990294   -1.98294558391602   13.76788512539435
C         6.18076928957013   -0.94442517083523   16.10454771092927
C         4.77436231975841   -1.25034204891874   16.63597361149327
H         4.06327898674575   -0.55048833004244   16.19435936467942
H         4.47373629647145   -2.26919732388135   16.39679427042913
H         4.74530463503213   -1.12398521069917   17.71441090419560
C         6.64833631993968    0.39146789346990   16.68658914217846
H         5.97799021354869    1.18709841266825   16.37205362404003
H         6.64398324185289    0.34489030452090   17.77328307699398
H         7.65910138963021    0.62672502662870   16.36221177807940
C         7.18085406814659   -2.07798506146133   16.52792837974305
H         6.81903406735365   -3.02637421757700   16.12015132972478
C         8.58121113696646   -1.76994449080700   16.05774789900266
C         9.09184489269826   -1.73221445677362   14.77697128674792
H         8.48666197182649   -1.99295920794196   13.92261472137986
C        10.42095781644160   -1.37013144535077   14.59685873657397
H        10.83001938565808   -1.33608938240523   13.59771184796451
C        11.22865784342487   -1.05641475049634   15.67819469855983
H        12.25691261760060   -0.76988722693436   15.51206613177983
C        10.73475322225157   -1.12788513089802   16.97059817536893
H        11.37055351159398   -0.90977431715783   17.81567373051109
C         9.41209671026863   -1.49293991194590   17.15478413828379
C         8.66010131832048   -1.73746739745252   18.37402574072665
C         9.05661145716407   -1.68799328947594   19.69943419287146
H        10.04984523122162   -1.35908110303897   19.96620935435204
C         8.15762468508592   -2.08234767611279   20.67700535571712
H         8.44665156757523   -2.04947457758827   21.71731441264994
C         6.89836708371216   -2.54413216379916   20.32988036257433
H         6.22108250317358   -2.87932143285763   21.10187235007251
C         6.49524104563815   -2.58907860413496   19.00112459066661
H         5.51927563464115   -2.97840721567141   18.75310673356853
C         7.36690838207482   -2.15746030017925   18.02258359775480
H         6.05496758529825   -2.36870749708275   11.59290882622789
H         5.39822460932249   -2.94568536992950   14.11143401065810

