63
CSD_code = SUGWEW | q = 0 | S = 0 | Stoichiometry = C27H30Cl2NOPPd | MND = 4
Pd       15.22571638836859   -5.91524483972915   28.67488789673869
Cl       14.57966143169629   -7.34218506499908   30.32122754280946
Cl       13.37012306629859   -6.35526822327477   27.46653575567815
P        16.21176193378014   -4.71735499377072   27.05827192252249
O        12.99628380005073   -1.08251022631589   28.14305671331082
N        16.71598836763333   -5.20356282407099   29.76554669411139
C        17.85486940778680   -4.27168466156342   27.78848279453079
C        17.99543363046517   -4.94933868573677   29.17385044241230
C        16.35581200427461   -4.53330065172806   30.98130234533048
C        15.43010025404183   -3.50808545609610   30.39440098465026
C        14.07975274049992   -3.87103765973437   30.14408441204535
C        13.26142503407779   -3.07318481021256   29.38901910071581
C        13.77764507211117   -1.86995527160317   28.84632782559599
C        15.10818550496814   -1.47834123126977   29.11533563412140
C        15.90944630761056   -2.30027377438637   29.86403050304298
C        12.32479073918758   -0.42706201533700   27.43858768631113
C        18.79874458858876   -6.28122204335355   29.15212837289756
C        18.18509573783859   -7.33508727385970   28.23677581648044
C        20.26465205831387   -6.04271361972724   28.79711504304341
C        15.55523812375497   -3.20120847247200   26.30084433236366
C        16.28998919625295   -2.05782830952906   26.01514925812232
C        15.68101332423463   -0.97782700180164   25.39819103484520
C        14.33971090984845   -1.01691427156790   25.04215441310453
C        13.61059867821415   -2.17096971318406   25.32365796373067
C        14.20512924231511   -3.24747641432579   25.94982487961665
C        13.67212384614225    0.14972233387903   24.38562295810102
C        16.59623543426396   -5.68270742007712   25.56438397899479
C        16.19483185664063   -7.01478694788939   25.50551829146384
C        16.46195923987687   -7.76634416399370   24.37845067835899
C        17.13023580628149   -7.21004878893887   23.29160534558205
C        17.52838154939333   -5.87993945886439   23.36092850531226
C        17.26303012556896   -5.11771377171245   24.48281977947948
C        17.41224698431789   -8.03911840175994   22.07749784399390
H        17.87406577855081   -3.18935983027249   27.93576348973725
H        18.66657684048249   -4.54312651735073   27.11137844495113
H        18.56754951757562   -4.26314007881661   29.82252397319203
H        17.22229394446241   -4.09129892222048   31.48658755954423
H        15.83847709639652   -5.22348558059415   31.65674661008511
H        13.66520938377228   -4.75688460327803   30.62530463793125
H        12.22874053531896   -3.33209507751963   29.21009214844920
H        15.46467302855090   -0.53498238085349   28.73017130108324
H        16.92565906898162   -1.99784856452649   30.07231447226877
H        18.75289653779248   -6.65894852322223   30.18027086521612
H        17.13328321070780   -7.52170296388720   28.50961222465600
H        18.24611942689435   -7.02834157046593   27.19306085008436
H        18.72522642342032   -8.27307531383007   28.34689262246389
H        20.70166424421702   -5.27762950616588   29.43561196325830
H        20.82920346427496   -6.96191208816712   28.93295447817810
H        20.37653103681518   -5.73286049195077   27.76022487710302
H        17.33993996303676   -1.99739229503323   26.26510433368004
H        16.26343037145374   -0.09246390823603   25.18331508214369
H        12.56662706243417   -2.21596858288455   25.04849082703706
H        13.63721302385528   -4.14215596396214   26.17833609205994
H        12.86050447109665    0.51416288294587   25.01521362455485
H        14.37609042701812    0.95958798583404   24.21364775081618
H        13.24269426308002   -0.14976091892729   23.43131598910450
H        15.66049767956462   -7.45207166222409   26.34816574446010
H        16.14403402312501   -8.79798024514376   24.33426858757259
H        18.04528910602427   -5.43316543026105   22.52338061620246
H        17.56569080587067   -4.07983191641501   24.51703617177338
H        17.80467982797821   -7.42875979962278   21.26819672797542
H        18.14261899024178   -8.81295413562810   22.31294357585796
H        16.50460806272034   -8.53387986813963   21.73685760961807

