61
CSD_code = SUHCEE | q = 0 | S = 0 | Stoichiometry = C22H16Cl2F16N2O2Pt | MND = 4
Pt        6.54979903714753    5.59552959970725    6.96839109813084
Cl        5.54485746314608    3.61900402139128    7.21885486721669
Cl        7.16819584751437    4.95710169476990    4.92045732767528
F         3.03302520071528    7.18244869171293   16.60257636725972
F         4.45577872083051    5.72027412138017   15.89625661038063
F         1.74565224297007    6.81536927073568   13.96297595706966
F         2.99766030732430    5.06003666738330   13.80443293270100
F         0.59310667813431    6.04207736841679   16.15175190040221
F         2.07435250962258    4.53525146534417   16.60670046702080
F         0.07493074830954    4.59938416884767   13.71768850419438
F         1.34463074243751    3.03279795531632   14.51180004254348
F        12.95492546052432   12.00187510270602    5.91875032028297
F        12.43024403744630   13.85875619127070    4.97023133643383
F        11.90714666402415   10.52363131123211    4.14037731858937
F        10.45040432768404   11.97211389986289    3.50316606690486
F        13.95870210301020   12.22139346678479    3.23265471990902
F        12.60678996595522   11.38957721149804    1.77107031231550
F        12.37204991946382   13.68596683068806    0.88588961591002
F        11.26217507709616   14.21568198622368    2.65854287603949
O         4.54964361619247    7.20386816258097   13.40659239932318
O        10.15165025836049   11.43648537745804    6.19389697244761
N         6.04843225488086    6.28031859973752    8.77651815755468
N         7.39437299702106    7.39926242400732    6.85487264717774
C         6.46302094814595    7.54376448320524    9.03081947403732
C         6.18822158732166    8.15153696539979   10.25292288954505
H         6.52346472670680    9.15771006589084   10.44666406515932
C         5.48450393316789    7.46123534878552   11.22843920343261
C         5.06854888727371    6.16233417086478   10.94423832573907
H         4.52265081391544    5.59430443073938   11.67769872740095
C         5.37073656266676    5.61698106592591    9.71280763718044
H         5.06620408236520    4.61212938382601    9.44671916337340
C         7.20790419322934    8.17588208068732    7.94736613891427
C         7.71406223881515    9.47325435084213    7.99605307063317
H         7.55480583412812   10.08352937128333    8.87028328416271
C         8.42113142061911    9.98199001742363    6.91903991989083
C         8.61219882520230    9.15777911360644    5.81037697837743
H         9.17194258128011    9.51134166221324    4.96165444943177
C         8.08572220435541    7.88334626526763    5.82227595814606
H         8.20489738998311    7.20945048661324    4.98262112943077
C         5.18967642290686    8.11937562327821   12.54711901086588
C         4.23883590856403    7.73558932745517   14.65799480636010
C         3.56109621934444    6.63859881659303   15.48176033923716
C         2.43982979834738    5.90817760728296   14.68175836382232
C         1.43267680564185    5.14423419743374   15.59336745788131
C         0.58329519184888    4.08227936799784   14.84512994593084
C         8.95027774481516   11.38790552405835    6.93620254650198
C        10.69704734904580   12.71638311846231    6.09636442462856
C        11.96229104192505   12.61184448931930    5.24637337082986
C        11.72651237151821   11.83453975728792    3.91458092810473
C        12.68929032082137   12.28060530513411    2.77131950588403
C        12.43314651694884   13.71782812519147    2.22099348045326
H         6.12873431189660    8.47307643190348   13.00278947172713
H         4.54342225895237    8.99767703015995   12.38359441526661
H         3.54109822947596    8.58452386042663   14.58363037652989
H         5.13864500145512    8.05524536932456   15.20588940922465
H        -0.24013617479330    3.74369159370005   15.49391719413474
H         8.20545395938367   12.06348566530499    6.48280962755409
H         9.12809388536941   11.72033529372306    7.96965944674463
H        10.98465752208354   13.11976205470950    7.07937103945098
H        10.01187771742582   13.42207213228996    5.60069140520377
H        13.24343518804474   14.39419445731835    2.53525420129330

