37
CSD_code = SUHDII | q = 0 | S = 0 | Stoichiometry = C18H11BrN3O3Re | MND = 6
Re        9.81046199474029    1.60848991179564   12.39877544330967
Br        8.40022237375318    2.79698262296831   14.20776430888393
C        10.42744062365768    0.27267922389777   13.67198912048137
O        10.79460787653946   -0.46107220004438   14.47359394580343
C        10.82202878283968    0.85486720042531   10.92195018072754
O        11.42398837084617    0.40161154524569   10.06004426674697
C         8.23743874470229    0.50193791930223   12.06428984794590
O         7.26612799552969   -0.09420965594538   11.93673755641915
N        11.30107624220051    3.06488239200213   12.86505819081560
C        12.38680475996365    2.82496876634440   13.59894595861106
C        13.23885326484318    3.81809017869410   14.03990405907558
C        12.96121341804082    5.13355088129263   13.69646894936746
C        11.84458450660884    5.39163579295124   12.92668089544226
C        11.02124210791814    4.33889225597670   12.52813515751130
C         9.82689727517447    4.53449687186774   11.69696304010706
C         9.32301523242364    5.79792181018575   11.39248868747849
C         8.20814418304444    5.90441735550190   10.58349428203792
C         7.64996214721422    4.74919289339343   10.06697269499412
C         8.19575416489613    3.51719556312033   10.41630858203530
N         9.24049883945671    3.41336192338970   11.24148631136162
C         7.64602449932505    2.28253347037611    9.82312832038310
N         8.54813242672935    1.37873576067677    9.44292672545450
C         8.12846770678475    0.26967069936019    8.86530543065356
C         6.78702274722768   -0.01358739638409    8.65237765940672
C         5.84566148001738    0.91432348420993    9.06848631064336
C         6.27706296693430    2.09177709173731    9.65632895891960
H        12.58013100450300    1.78908204294486   13.84714929788441
H        14.09743563678939    3.56391931461613   14.63962292909795
H        13.60174011516405    5.93911803055972   14.02026148503173
H        11.61588235685397    6.40360642144216   12.63731221413204
H         9.77629268561886    6.68427786863172   11.80242396880664
H         7.78878641835878    6.87146035124034   10.35259200069582
H         6.80646470683850    4.79004577633508    9.39691088364571
H         8.90645206657145   -0.42110695854702    8.56988743459209
H         6.48890231835244   -0.93867958073507    8.18556913313748
H         4.79025336492065    0.72400173477147    8.94136741437851
H         5.57092459461606    2.82632863639998   10.01139835398134

