50
CSD_code = SUHDUV | q = 1 | S = 0 | Stoichiometry = C16H28N3OPdS(1+) | MND = 4
Pd        1.48720384904607    7.62718736996627    7.77859932014844
S         3.61865363520659    7.82145125022615    6.98913086491494
O         2.09384530439686    8.11118691557595    9.63157926368167
N         5.95233395089881    8.40530357156915    7.91700995978987
H         6.58811355681867    8.71339834526424    8.64038941738890
N        -0.49100218720666    7.36928276875142    8.53335127324305
N         0.66177844157655    7.07231688519477    5.95551074902682
C         4.22577569519710    9.22608131245569    9.33177603462825
C         2.98532544923517    8.97526836695437    9.99148984805014
C         2.73828363073112    9.67573118800675   11.20045996230077
H         1.81590005522811    9.44944210468409   11.71414787288437
C         3.61259205277601   10.59819193068609   11.70285003746514
H         3.38071348934554   11.11682917512948   12.62015854191441
C         4.79251313578963   10.89003790344805   11.01532807148666
H         5.46213989281090   11.65062197721179   11.38270111367416
C         5.08872470142572   10.20658600536308    9.86681564198118
H         5.98459171707258   10.47327243457193    9.32451609013542
C         4.64725234699432    8.50997426003465    8.15356536548588
C         6.57969267532537    7.78535088148230    6.76379412085565
H         5.91883581252799    7.94298728653801    5.90437313966639
C         6.75088926764096    6.28535035545711    7.00289947779044
H         7.40257426053471    6.10952393473637    7.85529445390362
H         7.19210813081875    5.82027778561693    6.12699808374232
H         5.78834043732967    5.81801843640021    7.19525286044303
C         7.91738241703666    8.46993025123199    6.51612999145467
H         7.78216421714255    9.53850280290457    6.36641070778767
H         8.38406049568025    8.05698224596262    5.62709376593375
H         8.58968953069227    8.31310961161552    7.35714532301533
C        -0.93138102080410    8.48639028734918    9.36823797215668
H        -1.94794389538723    8.32242955272984    9.74371639313230
H        -0.90725978299284    9.41564411833447    8.79390546713964
H        -0.25254298324731    8.58654303333428   10.21496501828582
C        -0.42123843971625    6.14808045863661    9.34053650007580
H        -1.40385773740862    5.89535739508476    9.75724769877325
H         0.28139269194986    6.30642665118153   10.16166362706401
H        -0.06535244697777    5.30790738399601    8.73797873596243
C        -1.37599303787305    7.20608365421709    7.37044065927860
H        -1.67870672108952    8.19782976625584    7.02311262279689
H        -2.28682984261069    6.65713317853350    7.64685269896638
C        -0.65112332134159    6.46366476422524    6.24652867794827
H        -0.48305759956209    5.42492347567945    6.54537432499469
H        -1.27597209279134    6.45591547698252    5.34325019277260
C         0.51476728930108    8.30045721941270    5.16676937741512
H         1.50342618888220    8.71130562727899    4.95098793481279
H        -0.05726517075784    9.04827406280358    5.72155905687125
H         0.00501384535424    8.09792813200292    4.21762921263455
C         1.47947913793983    6.10984428496012    5.21110713790931
H         0.96061130971018    5.77364489987240    4.30682802936226
H         1.69910593657445    5.24371822159505    5.84024635066718
H         2.42285173079591    6.57130099847667    4.92009095820118

