46
CSD_code = SUHFAD | q = 1 | S = 0 | Stoichiometry = C15H26N3OPd(1+) | MND = 4
Pd        3.66010521620150    8.34599340620590    6.55312786474107
O         4.47848526454600    9.28535111478145    8.10500362163248
N         2.26801411066417    9.76223424413770    6.47396734148468
H         1.48723697966609    9.61620818048336    5.83152440320172
N         5.12697381160829    6.87241886722845    6.70771319239980
N         2.95448969727426    7.21073708410572    4.90661333363811
C         4.18647609284135   10.45574980433626    8.57037561408390
C         3.08624633080620   11.27779984541385    8.16764996179809
C         2.93749951900206   12.53426039647517    8.80224378914253
H         2.13499109042345   13.18818376219748    8.50580637094147
C         3.78847969678148   12.96866134453514    9.77983975679389
H         3.64366955978566   13.93492741163645   10.23538402712704
C         4.85081444038006   12.15550161256152   10.18444506098623
H         5.52479512049067   12.49125786112951   10.95737322329007
C         5.04079429009411   10.93881735857915    9.59365242417046
H         5.85859167650688   10.29838314104305    9.88797386833078
C         2.14598168880555   10.85553688557374    7.17138764835740
C         0.89694686598549   11.66804327370013    6.92994021079463
H         0.44752948236958   11.37052387375726    5.97798490130973
H         1.13097678902314   12.72892704803187    6.85729444590852
C        -0.11640441646428   11.42767327799954    8.05283473711203
H        -0.37904075892413   10.37341586554385    8.11071173361986
H        -1.02121985084090   11.99786222157481    7.86081440433291
H         0.28899269429451   11.73094379050721    9.01387543278318
C         4.81390745433067    6.14438428668240    7.94301700712590
H         3.80596209230386    5.72258517983245    7.89616850196818
H         4.86219094561772    6.83676044851244    8.78659506080821
H         5.53052306025333    5.33149678052598    8.11055987714269
C         6.47117515405664    7.44713284959097    6.80967807205012
H         7.22906918561721    6.66109846204347    6.90015721064529
H         6.51897400150971    8.09058495792555    7.68860765610251
H         6.68721489767249    8.05406267655105    5.92665796941523
C         5.02960667579568    5.99343446805948    5.53113856247583
H         5.64173363546166    6.41196622998857    4.72788857599782
H         5.42021904854036    4.99242754277433    5.75777324796497
C         3.57631411372258    5.88164267891509    5.07035494943352
H         2.99722506964324    5.33091147080854    5.81780577318585
H         3.52930622432366    5.31989965588441    4.12687546981442
C         1.50328541466049    7.02636254942876    4.79582852758070
H         1.02064478431780    7.95932544671151    4.50878008186826
H         1.09379763957991    6.69502551376064    5.75255113591199
H         1.26296497910501    6.27965411168645    4.03042001567564
C         3.45176197926147    7.87505327274777    3.69466742394757
H         3.25394471973659    7.26665639787479    2.80412235984450
H         4.52645976720907    8.05482630902227    3.76706401233816
H         2.95579376596324    8.83969703913520    3.57255114072446

