77
CSD_code = SUHGEH | q = 0 | S = 0 | Stoichiometry = C37H33N2O2P2Tc | MND = 6
Tc        0.65836382691514   -1.65015565846452    1.02463905820423
P         2.29322442241690   -1.71914624501032    2.81304200786121
P        -0.28183489374517   -3.88835573330763    1.10289835216485
O        -0.58467808344997   -0.91830895325862    1.80726803033840
O         2.14139216642232   -2.75028437125250    0.43519689979743
C         2.92559704204518   -2.74727664804979   -0.69449264485062
N         1.76696853954395   -0.07345321068352    0.47437914171257
N        -0.05706374881254   -1.75719626509719   -0.84344283952731
C         3.41411362169147   -0.45646689983066    2.17324213952033
C         2.94853404403517    0.25354936379406    1.04159665272430
C         3.77563033669845    1.27397849961498    0.53490558368887
C         4.98062763025467    1.57021475742553    1.13003756988485
C         5.41779815497511    0.86995608297197    2.24928939149998
C         4.62636274378919   -0.13592772431792    2.76960868086390
C        -0.63563924739341   -4.07663671806459   -0.65465146219414
C        -0.50880294104692   -2.89221094535440   -1.41946797369152
C        -0.82733456201651   -2.97108279647887   -2.78854684672421
C        -1.21993559657456   -4.16142444305735   -3.35738446783419
C        -1.30219294518937   -5.32450298056409   -2.59977503247384
C        -1.00911639510258   -5.27489570379949   -1.24975493072685
C         3.26555832036546   -3.22259548140139    3.07143804549182
C         2.75963001391935   -4.19221930229964    3.93324977374735
C         3.44614630739595   -5.37492342982632    4.12737444372701
C         4.62854310564744   -5.60874404868422    3.44341090121899
C         5.12522208783720   -4.65476224384992    2.57101151098708
C         4.44995638760824   -3.46153638441397    2.38618421692460
C         1.99411027955176   -1.11219555769308    4.50875813873439
C         2.83290485843249   -1.38193497583317    5.58451293077642
C         2.56984938052702   -0.82044402002232    6.82133628417073
C         1.47445327156691    0.01049479524100    6.99149000341202
C         0.63383989650848    0.27834123927409    5.92254674195971
C         0.89136776644544   -0.28098593525894    4.68436235253522
C         0.60236033272075   -5.40568741308546    1.55148210443371
C         1.65022978996328   -5.83252003110468    0.74049028215499
C         2.36580827574372   -6.96769287542241    1.06842696441773
C         2.03511592729441   -7.69439839482473    2.20069875901979
C         0.99171887067409   -7.27552216231201    3.00936159532249
C         0.28258722560113   -6.13047368876916    2.69519882237211
C        -1.87794920775178   -4.06267898734269    1.96779480965884
C        -1.94824975645901   -3.51968292333004    3.24913745805779
C        -3.12154492931175   -3.59915450543759    3.97508318270983
C        -4.23602010582327   -4.21105808201223    3.42256140867236
C        -4.17534544906226   -4.73518845144205    2.14224897154754
C        -3.00107735212182   -4.66163808804168    1.41263583372459
H         3.42930889017710   -1.77609651618110   -0.82695224675534
H         2.32264676436736   -2.93444371121571   -1.59788569754506
H         3.69793294083345   -3.52770666287971   -0.62487732425419
H         1.56668045174825    0.48475043358411   -0.35039384118765
H         0.01173777634008   -0.99060880052584   -1.50629076971618
H         3.44536422016950    1.83042609344713   -0.33238431999449
H         5.59494344716271    2.35967152742369    0.72082905803661
H         6.36448951025493    1.11231457262343    2.70729787811177
H         4.94773339341322   -0.68746906799610    3.64322158769562
H        -0.75098223892576   -2.07766209301565   -3.39418886165176
H        -1.45529935990588   -4.19367467913704   -4.41173123615524
H        -1.59135172187994   -6.25603448495140   -3.06181897004304
H        -1.05438626360636   -6.17321146961383   -0.64679726834061
H         1.82872359406303   -4.00497218953876    4.45297748736647
H         3.05907622569657   -6.11890109307463    4.80788148097700
H         5.16226155823455   -6.53623414305486    3.59056649350111
H         6.04545529927804   -4.84036251638492    2.03554360457759
H         4.83526389432652   -2.71088823906000    1.71094419885429
H         3.68484586082527   -2.03580302351059    5.45693385215669
H         3.22328637380575   -1.03061693761918    7.65598198256842
H         1.27516208537815    0.44674688810387    7.95943415814238
H        -0.22285221435271    0.92223795919479    6.05668819464992
H         0.24151489116173   -0.09253052752901    3.83772081379419
H         1.89295046518984   -5.27021522773936   -0.14831743968285
H         3.17970557348607   -7.29276075726113    0.43663001252122
H         2.58831312675596   -8.58786360875188    2.45059335022745
H         0.72856401637069   -7.84416639818713    3.88984125571151
H        -0.52907854689308   -5.80357796265353    3.33005022330783
H        -1.07735700379240   -3.01980184150572    3.65531904341549
H        -3.17268771837280   -3.17653548878493    4.96792835836012
H        -5.15566098131054   -4.26913713564937    3.98621825003684
H        -5.04842659661453   -5.19983372773652    1.70730067440796
H        -2.96050712663573   -5.05881163004854    0.40885317099360

