73
CSD_code = SUHGOR | q = 0 | S = 0 | Stoichiometry = C36H30ClN2OP2Re | MND = 6
Re        0.68509817248485    1.70201746868266    6.43501534716510
Cl        1.35549603107448    2.20248400983155    8.60431877841980
P        -0.36532019197666    0.56888298610559    4.53207230457955
P        -0.67385417185453    3.72318415425176    6.37908275454934
O         1.91145629035885    2.45998399229110    5.58597557584651
N         1.31343466784672   -0.15874607939089    6.79198692780680
N        -1.11785036257485    1.03439028581818    7.22546288761560
C         0.29821463800543   -1.08036429944620    4.83205507358205
C         0.07181658458518   -2.15083944174394    3.97606967072121
C         0.60164809737770   -3.39298495373613    4.26518650904305
C         1.36183847388812   -3.55912574551139    5.41957524208435
C         1.60179752289505   -2.50701000454752    6.27311497021156
C         1.08791635802753   -1.22485015476191    6.00000857504007
C        -2.22205407861387    3.14610413252842    7.08077758837480
C        -3.31550369943826    3.95711766360572    7.35498114774225
C        -4.46470506041142    3.41432453271855    7.89445497357913
C        -4.50781605430623    2.05398282922189    8.18650852293933
C        -3.41765332410820    1.24657879683584    7.96769362915643
C        -2.23158149335794    1.76938999875645    7.41691888324496
C         0.11045465098611    0.96215318043187    2.82714896941880
C         1.42955638978977    1.36696715420485    2.63822705829697
C         1.88128466935728    1.68175000400947    1.37168865022062
C         1.01695435391735    1.59947290997016    0.29011977450793
C        -0.29412245539470    1.19441468925567    0.47652877413987
C        -0.75275448223427    0.87172958844795    1.74192027198283
C        -2.16977163794852    0.41513297248082    4.53932475947719
C        -2.79599067600782   -0.68741572160332    5.11081871358787
C        -4.17355563185617   -0.71202377626918    5.23282777795592
C        -4.93148083621668    0.36297962769527    4.79879977645573
C        -4.31126540412726    1.46216321366524    4.22719520038218
C        -2.93591089978666    1.49086139450642    4.09777992977723
C        -0.22605342520552    5.20370451859358    7.31866481807447
C         0.27889107877767    6.34434886924180    6.70263884345170
C         0.65713131005314    7.42793189498489    7.47457511737004
C         0.54578859001211    7.37405201672760    8.85451016162386
C         0.05389280931462    6.23317355225923    9.46934763431650
C        -0.33078524032018    5.14724444003909    8.70704682646551
C        -0.96889977917048    4.33463045433443    4.68715837424461
C         0.09850458395387    4.28179126675936    3.79398089313282
C        -0.06449005844417    4.70173411815639    2.48679653949219
C        -1.29498298148679    5.17687533670334    2.06236350345674
C        -2.35873091921797    5.23435271508452    2.94834325532952
C        -2.20139677236392    4.81449061222993    4.25819751784406
H         1.87151526742668   -0.36326952073576    7.61879709706836
H        -1.22066781184027    0.09289741236445    7.60186233478325
H        -0.52334963472541   -1.99626443767533    3.08531503849837
H         0.42997049722181   -4.22716481735280    3.60273037097223
H         1.77386032286832   -4.53123172433372    5.64896817199532
H         2.20137392380920   -2.64801315196142    7.16162624596973
H        -3.25083742069715    5.02021618431163    7.16349054048585
H        -5.31826186858478    4.04140226352171    8.10134625275159
H        -5.40682788929249    1.62878234665786    8.60930802507093
H        -3.45235165557415    0.19731723836399    8.22829081481834
H         2.08009147271653    1.44348615543945    3.50180624589227
H         2.90378911664889    1.99661234031340    1.22473928321290
H         1.36588100527071    1.85241603660048   -0.70028895708610
H        -0.96442812830620    1.12783721062281   -0.36812584023280
H        -1.77505542210523    0.55058646932622    1.88417094091125
H        -2.20081275976265   -1.52026163566993    5.45968935284113
H        -4.65765344246527   -1.56968093798420    5.67669425518697
H        -6.00539700896230    0.34530132848496    4.90883819449210
H        -4.89975291554864    2.30228510123211    3.88922509812918
H        -2.44400620406373    2.34585301064594    3.65636679538759
H         0.37238939628851    6.38084433716287    5.62613909683466
H         1.04602907717401    8.31587151630960    6.99753218626840
H         0.84917024963348    8.22094356734067    9.45230863313100
H        -0.02213215341485    6.18779200858406   10.54545260633363
H        -0.70050896835801    4.24644282039773    9.17642179589972
H         1.04926882815858    3.89577029161866    4.13945320755953
H         0.76471077429114    4.65026956196805    1.79704066430276
H        -1.42712720139998    5.49887504321928    1.04002561026789
H        -3.31862093556339    5.60256599130809    2.61613449808254
H        -3.03910414717225    4.83838278656305    4.93867893746177

