56
CSD_code = SUHGUY | q = 1 | S = 0 | Stoichiometry = C23H27N4OPd(1+) | MND = 4
Pd        7.21524850724412    2.14631167831686   13.61238435103305
N        10.44142608426611    3.05014849743409   11.26203217592489
H        10.91880336813906    3.80963351180053   11.72512080433718
N         8.55214685177050    3.30562526783664   12.62694915618742
O         8.80909545858775    1.47333225282960   11.29226821329211
C         6.46431565925955    1.94861888830498   11.77312373620370
C         7.44407951944973    1.50619894664239   10.88882062027405
C         7.15580085091695    1.14515475309233    9.58314905807018
H         7.94083802387278    0.78702937226047    8.93562973330460
C         5.84896704551382    1.25274209885938    9.13665101560148
H         5.60661410895248    0.97092433296267    8.12424956803057
C         4.86580605882809    1.74640587652904    9.97628140528234
H         3.85619300155804    1.86375227987062    9.61300942441882
C         5.16800464653285    2.08572014897551   11.28869554658467
H         4.38487342278589    2.47414740759750   11.93166633956376
C         9.26677437795280    2.64813862818121   11.77292542152304
C        11.25897013574897    2.25688352174371   10.35126266161547
H        10.56888814473200    1.70050357664206    9.71092745960899
C        12.12489155411080    1.27093316428423   11.13265062584141
H        12.80976273431378    1.80108280954582   11.79151133403881
H        12.70808752145137    0.66521124078632   10.44589819194546
H        11.49892958964739    0.61093754119657   11.72859776584774
C        12.09970156212315    3.20621256110500    9.50853627024636
H        11.46678387722279    3.91091617610010    8.97498611758394
H        12.67474587337106    2.64233214680855    8.78056801750338
H        12.79436446809811    3.76212104612684   10.13500188717780
C         8.72970202771576    4.71924079000946   12.91894609695467
H         9.75413967043242    4.92634029634797   13.27118731413087
C         8.44994845261598    5.53641782718000   11.65350425050011
H         9.12769728142398    5.26469203154438   10.84872669112683
H         8.56431480884950    6.59672011440787   11.85913629602707
H         7.43084095639709    5.34903325305582   11.32162383733062
C         7.72906690358031    5.10304664250907   14.01397439155184
H         6.73192745721164    4.72109406558530   13.73847219774389
H         7.67113941957129    6.18468896680081   14.10472842922885
H         8.02418908182360    4.69843810418680   14.98348636443550
N         5.92035222290285    0.98689301336500   14.62077101376978
C         4.89340396337832    0.32902354372266   14.08671847510452
H         4.79839992396097    0.36648401047592   13.00804219988205
C         3.97745367832159   -0.38260284413472   14.84443264731081
H         3.16463389319964   -0.89901520501891   14.36099844120955
C         4.12969109085921   -0.40930663591896   16.22119569420299
H         3.43009355427222   -0.93878636933519   16.84835217565295
C         5.21336966137243    0.24632575185695   16.77797412153899
H         5.36024702826588    0.21686286482663   17.84434435011378
C         6.10819891464389    0.93123817355822   15.95679828115698
C         7.33604689480461    1.55725279976193   16.48144178726811
C         7.67982078938853    1.56791070460374   17.83413247998491
H         7.01065063421128    1.17491444276499   18.58055257380887
C         8.89964290608368    2.09416826755798   18.22163919791257
H         9.17852400479189    2.11045300816544   19.26356796391566
C         9.75848047994911    2.58789097154030   17.25122065879809
H        10.72542036676702    2.98648041968243   17.51078656386993
C         9.33859359437221    2.56587892217742   15.93139613962350
H         9.97204596029965    2.95002007396078   15.13973358935618
N         8.16115193207070    2.07948426890451   15.55861887544102

