50
CSD_code = SUHKUC | q = 1 | S = 0 | Stoichiometry = C20H22ClN6Ru(1+) | MND = 9
Ru       -3.61384524954872   -2.84495899682672   11.24189515330998
Cl       -4.52975950229879   -3.46808738702927   13.30332267369068
N        -4.68243168079195   -1.16560643865847   11.59379853956633
N        -4.09609725411173   -0.24287246094925   12.40593409075511
N        -2.38059622766670   -1.75460270160539   12.40320293803914
N        -0.42657540672152   -1.53248737885236   13.69082866577836
N        -0.05296495815031    0.36690230880829   14.98649581324050
N        -0.47206930456111    1.58809123059259   15.40857355558758
C        -1.95348459596817   -3.61829678968054    9.88978795604339
H        -0.88564511725875   -3.42524853120619    9.87726556482624
C        -2.80393069170834   -2.84480894383193    9.07356198443347
H        -2.39524898656214   -2.06720080415200    8.44001722537788
C        -4.17859793800866   -3.15205905791411    9.02757481652817
H        -4.82403565772640   -2.60437472887818    8.35012746851280
C        -4.69324320880763   -4.25038978792842    9.74967668741679
H        -5.72621566939847   -4.55099577375940    9.62212869656185
C        -3.82919136115290   -5.02540509237266   10.54943117882841
H        -4.21253219993486   -5.89979643626661   11.06494506388310
C        -2.45702075812448   -4.71939494835775   10.61711787715933
H        -1.78294839725771   -5.37221053870153   11.15929863330767
C        -5.92798247161611   -0.78014036560173   11.37783130706999
C        -6.14362321738403    0.44617618339573   12.03422645548618
H        -7.05245391175806    1.01156182737210   12.03307320256008
C        -4.97867783829776    0.76828874480689   12.68478964955245
C        -2.83490319782804   -0.56074348509403   12.87500217080181
C        -2.07720754526437    0.19676783418254   13.73937087622571
H        -2.37320273296311    1.14715793480860   14.14015656764006
C        -0.83490544256827   -0.33706330374024   14.13584858996243
C        -1.20473612229237   -2.17678966936028   12.86918603575068
H        -0.85780888250389   -3.15020887238025   12.54464228593166
C         1.17458886479538    0.03870713526610   15.54594127573984
C         1.51447070089864    1.09551091971856   16.33442738367162
H         2.39721432674113    1.20555499765314   16.92929287796592
C         0.45209556288566    2.04161063227957   16.21541514759850
C        -6.90326902141535   -1.58193290853877   10.60392728780170
H        -6.77643482134894   -2.63674156404804   10.84552134210591
H        -6.76630542200228   -1.44047014973873    9.53290595356737
H        -7.91337272172466   -1.27634995648813   10.86049443975562
C        -4.69847619925498    1.95211275071497   13.52682408709079
H        -3.84761566668635    2.51696627616738   13.14927266307361
H        -4.49995342189769    1.65998716878456   14.55721301196835
H        -5.57164774714716    2.59874096337792   13.51908219946168
C         1.88133352409506   -1.23078910234267   15.27863741029421
H         2.80752577027054   -1.25190845669378   15.84567057092924
H         2.10573589015725   -1.33050448833802   14.21847724423722
H         1.26417287679175   -2.08047159693207   15.56388815394716
C         0.35573539732264    3.35780457523972   16.88270346369608
H        -0.55997999614565    3.86131484390560   16.58834711873082
H         1.21205444314600    3.97456896649463   16.61485747636685
H         0.36566318874819    3.22738542269810   17.96368916817445

