63
CSD_code = SUHQAP | q = 0 | S = 0 | Stoichiometry = C30H30BrPPd | MND = 5
Pd        1.73568519522676    2.73512203339414    2.06268440931237
Br        1.35729504336047    0.32653681205991    2.56776815882896
P         3.14403694978557    2.83977082051341    3.81231017650747
C         0.26046889674286    2.67592442431373    0.49777334006088
H        -0.08935916488089    1.66322417047193    0.31912847257067
C         1.42011713289700    3.21475157713474    0.01023183796807
H         2.19455025368225    2.70458453184812   -0.56384916466409
C         1.34335342417798    4.72146320648991    0.20002159125374
H         1.98618620058024    5.31309829052987   -0.45414991624087
C         1.71976044155587    4.73857559233096    1.67902779188249
H         2.63272909349419    5.30323652779246    1.89591379870870
C         0.53495025418105    5.22749085313271    2.49742930385370
H         0.79271973992462    5.29626765501914    3.56448066495086
C         0.19821627257296    6.60833662330867    1.91558227640846
H        -0.33706755592393    7.24199734765668    2.62323163001542
H         1.11753554357133    7.12677853957462    1.63739787741385
C        -0.67478286476105    6.29945043496966    0.70236879215762
H        -0.67200706912835    7.12058148277145   -0.01889523223542
C        -2.08929464530586    6.06373356568021    1.24964031465554
H        -2.72661598172581    5.64163082793908    0.47139750746640
H        -2.53065277734740    7.01391452022071    1.55442433639048
C        -1.98248891212168    5.10935602605413    2.45392749259093
H        -1.95177801327481    5.66662455187878    3.39159078441224
H        -2.84777709031109    4.44552477203280    2.49420268023412
C        -0.69736154104865    4.29185451278963    2.29183679811929
H        -0.67679360843549    3.44537310287038    3.00526258045575
C        -0.71178931442140    3.79073873147830    0.83017931076127
H        -1.72779483085316    3.49994147760790    0.55251888130860
C        -0.16473079475890    5.00023602841871    0.05017098819301
H        -0.45113381726837    4.95418566215488   -1.00542631594033
C         4.73031791528052    2.11146101899205    3.31152057094734
C         4.79719103619300    1.49426511134447    2.06530450377266
H         3.90447143975298    1.45218909307328    1.43228289011734
C         5.98416544937906    0.93005790221747    1.63388113459838
H         6.03266841855113    0.44408439518188    0.67080094802923
C         7.10923830572174    0.98876562058988    2.43976314148395
H         8.03569563713822    0.54573116256960    2.10556279781972
C         7.05302143351211    1.62338817880420    3.67112918534572
H         7.93596833807531    1.67900558794615    4.29121372167098
C         5.86972815726442    2.18894248758840    4.10841136425932
H         5.82787619223369    2.70536198141200    5.05843849479289
C         3.67506353908470    4.43748873309081    4.50990147256187
C         4.56281633446861    5.21297409042296    3.76667991209117
H         4.96803758292425    4.81629370033506    2.84349322137981
C         4.93325598108676    6.46763230287506    4.21034748511177
H         5.62688472405438    7.06082789319649    3.63235446955142
C         4.41267368010797    6.96511807821478    5.39487299465529
H         4.70059386787653    7.94658121501512    5.74107679308355
C         3.52310999471887    6.20283821630557    6.13323508890092
H         3.11690244625939    6.58912221116998    7.05667022402903
C         3.15014478355239    4.94505899425411    5.69287283663207
H         2.45621557498367    4.35096998378724    6.27191317278628
C         2.56523645655733    1.93033678861395    5.27384217565629
C         3.35079472585580    1.08730648258274    6.04612960025090
H         4.38758624296119    0.92314230593517    5.79196978274391
C         2.78833667745535    0.43177644841127    7.12842287853623
H         3.39696439881934   -0.23239892831608    7.72426007815315
C         1.45211277376191    0.61265262467245    7.44062973213396
H         1.01972561300302    0.09221367378937    8.28215798707522
C         0.66104911519935    1.44371081050318    6.66210786368649
H        -0.38673010023472    1.56813989871130    6.89220823929234
C         1.21534535241233    2.09496212414614    5.57891213327288
H         0.60326145181300    2.72339511015444    4.93375193818694

