72
CSD_code = SUHXAU | q = 0 | S = 0 | Stoichiometry = C22H42FeO2P2Si3 | MND = 8
Fe        0.64401099946236    0.52055564482046    3.74563776251890
Si        4.44772352313090   -3.30584474687016    4.77011360269115
Si        2.09578955333717   -5.46605257414781    5.24810513463354
Si        2.87913898101116   -4.57523542647086    2.24240780323605
P         2.23884235487039   -0.99032839063701    3.92201609009847
P         1.39885258135842   -2.81998059516507    4.07670851780552
O        -1.03841708523751   -0.94557228038555    5.58260215219756
O        -0.55551683680441   -1.17758030792963    1.73940296330435
C         1.09934612354301    2.39738727513958    4.91892508921953
C        -0.02311848919323    2.61226844017012    4.04789596592698
C         0.43122472088110    2.47358057681295    2.70770758359147
C         1.82720258918130    2.15600273007677    2.74886829686810
C         2.24896664186158    2.18543416826339    4.11158403348368
C         1.10290435029525    2.62586181438664    6.39969303421099
C        -1.37081741073732    3.10817382763822    4.47040591712870
C        -0.35713643728754    2.79250084175315    1.47563954340184
C         2.75514534065280    2.07169580246660    1.57747059407057
C         3.66090235285957    2.05229481667146    4.57162211108499
C        -0.36053615942321   -0.33711111568159    4.88315812014826
C        -0.06911941960900   -0.47290707374305    2.50620058850536
C         2.79200831654929   -4.05409879669029    4.10804421201002
C         5.44829243607293   -2.28012064809106    3.50052625739571
C         5.64486574159009   -4.70244320449318    5.28955470214162
C         4.18340581258535   -2.20700079233722    6.31732482882033
C         2.98169830313292   -7.13580327810524    4.97319368109772
C         0.22671182714582   -5.79150137521113    5.02321780615766
C         2.27415091702634   -4.95630570832305    7.08080165098009
C         1.34466355850996   -5.57858073766788    1.71089301129320
C         4.42587168003651   -5.63531301100558    1.88111335229853
C         2.90120533796700   -3.04994947139869    1.09116813424706
H         1.32979999032839    3.67177580127841    6.61630271756916
H         0.13239279534142    2.39331870525392    6.83082969588520
H         1.84866897909808    2.00260040791927    6.88718344823827
H        -1.36663633537008    4.19876471016775    4.52248077897244
H        -2.13701635063892    2.80414553966970    3.76160950448980
H        -1.64020708519537    2.72246393355035    5.45050799026711
H        -0.27069092682330    3.85682825153848    1.24848372202694
H         0.00969948358038    2.23139341096296    0.61980276734374
H        -1.40996610104114    2.55834642297793    1.61251378654945
H         3.20500473498858    3.04713891042181    1.38136039750081
H         3.55307933800072    1.35954869252466    1.77640504695820
H         2.22711004928338    1.75335346140725    0.68226085204972
H         4.31236380719426    2.68130851264115    3.96632644497754
H         3.75924298349634    2.34388492399453    5.61378581327569
H         4.00205568832197    1.01839945815672    4.47045063796063
H         4.91436495393484   -1.38328958630234    3.20421997895963
H         6.39295583860685   -1.97204198707549    3.94038518031032
H         5.67477207428002   -2.84651556965988    2.60430181553753
H         5.26429713304001   -5.28513644262286    6.11954248017693
H         5.85156972545736   -5.38252163304477    4.47255860709326
H         6.59114330246298   -4.27227784515517    5.60079548391612
H         4.63070400468746   -2.64395021346695    7.20447754072162
H         4.62419895000918   -1.22498351707514    6.17595454688817
H         3.12619313898065   -2.05909762863258    6.51442425958729
H         2.64783838290192   -7.85293952798819    5.71585477811031
H         2.75554313849605   -7.55012352928850    3.99703935247454
H         4.05795445975019   -7.05536321450675    5.05812928103608
H        -0.14521877677839   -6.41532010178097    5.83117797593169
H        -0.33337353663480   -4.86231323736432    5.04088521301819
H        -0.00190327707183   -6.29582788363001    4.09224472598125
H         1.83473900670632   -5.70804711081417    7.72919908676342
H         3.30670090076022   -4.82602098819346    7.38127199140402
H         1.75541022374540   -4.02111319436853    7.26653425089274
H         1.33132309688763   -6.57247509135099    2.14394989336635
H         0.43243485315507   -5.06908409955524    2.00383796573524
H         1.32486065794607   -5.69295048845586    0.63111340152680
H         4.47558283144712   -6.50438766878938    2.52541261574180
H         4.39319420164893   -5.98992302280332    0.85629986546347
H         5.34661939332555   -5.07776533094065    2.00516938182816
H         3.28621194728455   -3.29529863285556    0.10587592662438
H         1.89415212871490   -2.66144115444848    0.96694051977447
H         3.50526799095773   -2.24598884612008    1.49739773647194

