95
CSD_code = SUHZAX | q = 1 | S = 0 | Stoichiometry = C36H52CoN4O2(1+) | MND = 6
Co        2.17097442344074    2.08626655804299    4.91884080290262
N         1.55568567736827    2.54609029669040    2.87587123198604
N         2.43135713595926    3.94024993447971    4.93895885256451
N         2.10807768569764    2.65482300669380    7.44100450093257
N         0.37876776782780    2.33956348619131    5.34343441073109
C         2.54051496356489    3.59450008105917    2.56450598835348
H         3.49218354328794    3.11697996259737    2.32385669279259
H         2.22741378287556    4.20507160253597    1.70811561890205
C         2.76020552067956    4.47632489452172    3.76148546534270
C         3.23954899565081    5.77221849351391    3.65679929540212
H         3.50725115842919    6.17631761909919    2.69367168178179
C         3.36899484069657    6.52886461962503    4.81082363937061
H         3.76026002113849    7.53275785673654    4.76735726067464
C         2.95622505407267    5.98419085296586    6.01587694889836
H         3.00048268041326    6.56503956083624    6.92341209245968
C         2.47879516613878    4.68093714488364    6.04760470090846
C         1.88607421806842    4.09441579133988    7.30483118201115
H         2.25955149063968    4.65368211083987    8.16713117562631
H         0.80753669629481    4.28999452275964    7.25089038021518
C         0.86359210215616    1.93663236327215    7.69556149862648
H         0.36279578571485    2.27359098912098    8.61702874189961
H         1.09891992060888    0.87649225562829    7.80759578935286
C        -0.10988952060774    2.06666817237636    6.55461140102865
C        -1.48017954692135    1.94725435585333    6.75811643418441
H        -1.85835398800271    1.70672658694409    7.73899747895206
C        -2.34390486482300    2.14031483450307    5.69448513731163
H        -3.40847586081052    2.02909689371766    5.82467151706571
C        -1.82088951064547    2.51894682934006    4.46507924429506
H        -2.46967911098162    2.73416093590766    3.63136639533130
C        -0.44760552995379    2.61785466917458    4.33056717726058
C         0.22211590767561    3.14541849254957    3.08857604342590
H        -0.42977549307901    3.01110696322121    2.22351090405406
H         0.33736978298620    4.22549840778371    3.23737513514614
C         1.50462211936686    1.47162319810875    1.83069818873772
C         2.82395157725117    0.69789736477077    1.78834224523003
H         3.66746046777790    1.31474084754177    1.49218400023583
H         2.74001342012746   -0.10416483371900    1.05985889023250
H         3.03838411795821    0.25015240719610    2.75220375038908
C         0.40288246024282    0.48029989562491    2.21685786847072
H         0.51352403698950   -0.43145985433156    1.63697016581506
H        -0.59615707643032    0.86553449322097    2.03446754242348
H         0.49559358701953    0.22407256258818    3.26954443969565
C         1.23906178371118    2.03881184899987    0.42850734813568
H         2.10826660572023    2.56581192100984    0.04364098406797
H         0.38438434151807    2.70982102174131    0.39451651053179
H         1.03096902934783    1.21225559237089   -0.24525829699137
C         3.21510343120551    2.33044601859211    8.37680049711466
C         2.92201413680921    2.74886903728959    9.82685401007105
H         2.78480044931707    3.82191480318298    9.93555637910750
H         3.76406915954380    2.46366106444504   10.45085979292125
H         2.03774466548333    2.24622470257610   10.21110882773755
C         3.48847938397487    0.82296972677735    8.37059710518850
H         2.74081915940993    0.26928758709442    8.93312920801178
H         4.45136705658724    0.63028965171743    8.83577065480540
H         3.52858282642261    0.44363217665341    7.35495601141468
C         4.47724461621931    3.03804972469294    7.87135199788244
H         4.63674601068363    2.79784227005892    6.82359170406751
H         5.33983974434078    2.69888461207746    8.43785988149726
H         4.41788537367435    4.11747113413989    7.97716100058373
O         2.06637779845586    0.27076628891270    5.23136739373298
O         3.97938863353517    1.78007005531467    4.76070222874973
C         3.20952703092968   -0.35328616389156    5.14572993551412
C         4.31087244466076    0.52534060196645    4.86675073126246
C         5.59550370534337    0.02049907817066    4.65912657407519
H         6.39040908516004    0.71932807796204    4.45451718238052
C         5.81685034813033   -1.33738626977379    4.77162927791849
C         4.72809450517708   -2.18241161803198    5.06329521978425
H         4.92369592023127   -3.23395564646442    5.15758077433309
C         3.43167030103543   -1.74760348916312    5.24246504429551
C         7.22656859944895   -1.87733956472078    4.59061222202174
C         7.72789479112117   -1.49446211174341    3.18986987224678
H         8.73029501370388   -1.88607262659540    3.03537141708238
H         7.76083124976244   -0.41658169683580    3.06068202452065
H         7.07361580210058   -1.91226074197650    2.42753206779691
C         7.31321322739255   -3.39995430894673    4.72617154528267
H         7.00832450480620   -3.72695290036380    5.71748003710797
H         8.34373524873742   -3.71384839829376    4.57659951043116
H         6.70220678982394   -3.89856842486463    3.97739446161511
C         8.13749450577457   -1.25002839820479    5.65645950819001
H         7.78321221832758   -1.50638104713742    6.65262529139854
H         8.16297383122931   -0.16756029239799    5.57045216280707
H         9.15201834888037   -1.62467762541648    5.54487436007844
C         2.28481332915783   -2.68645124071848    5.58314730268119
C         2.73574295017849   -4.13850846956961    5.75206639126717
H         3.46869527554166   -4.23275398108890    6.54957346829432
H         3.15580351432088   -4.53058986878974    4.82917972550867
H         1.87620033455834   -4.75146914885642    6.01360125006419
C         1.24970256474858   -2.62222992537822    4.45270524517653
H         0.43503965553116   -3.31458162156010    4.65083318839089
H         1.70785435300409   -2.88870310966392    3.50273192115432
H         0.83933608820045   -1.62028017130592    4.37690127893612
C         1.63489483300481   -2.22522619778491    6.89456641074540
H         0.81639541473202   -2.89021041262857    7.15996413153118
H         1.23960508223019   -1.21904579849889    6.78336603618478
H         2.36484932120097   -2.23361295089537    7.70142928024289

