86
CSD_code = SUJBUU | q = 0 | S = 0 | Stoichiometry = C37H45P3W | MND = 9
W        -0.30953492361789    3.95422619584688    3.29459403317808
P        -1.92248336684284    2.72366425082318    4.66517210664010
P         0.62101925713304    1.85351399225790    2.86704967250524
P         0.39673181439529    5.04448988422600    5.37013551408308
C        -2.29242127150502    4.73752450610961    2.10033593039977
C        -1.58305328176755    5.83664554466585    2.66561955749951
C        -0.27982032135293    5.87131778515721    2.08273920819056
C        -0.18048892659991    4.76509430529040    1.15602966202111
C        -1.42955785480034    4.07831600928323    1.18056646597984
C        -3.78058778787405    4.55384631128710    2.15110874169965
C        -2.16337394240082    6.93180665920743    3.50943382449579
C         0.67367170501904    7.02110801988344    2.21269503043086
C         0.89755599862049    4.54608524057554    0.13800552850787
C        -1.82873932833779    2.98494091353019    0.23503978010719
C        -2.96965062176105    1.36646620707687    3.97198373873487
C        -1.14853311713335    1.77725203825398    6.03024211077058
C        -3.23900327147397    3.59957755340161    5.60961328008243
C         2.17823506948283    1.61817677237434    1.98269034946201
C         3.18581700809342    2.57832708219962    2.09041523763723
C         4.37322957270938    2.43554558890153    1.40213150613536
C         4.58269612023221    1.33302891756339    0.58823169200598
C         3.59021057332777    0.37352420975378    0.47212825147017
C         2.40094426735338    0.50977277643547    1.16109351073611
C         0.09671303238559    0.09639217998422    2.97307636321923
C         0.70295162955889   -0.73649661842550    3.90903574965692
C         0.34007657167407   -2.06728253692525    4.00332732287573
C        -0.62947267306719   -2.58381555627650    3.15899275807388
C        -1.23121332115024   -1.76588981023181    2.21687294803921
C        -0.87212484222655   -0.43275266982106    2.12607717013840
C         2.09594296953822    4.61822201492264    5.87881904689673
C         2.85452749987501    5.55064716814528    6.58176883223427
C         4.15053993218957    5.25710202949499    6.96103292209084
C         4.70712421033193    4.02922845754074    6.63994190580824
C         3.95630329079599    3.09233117257712    5.94903777745168
C         2.65709177529082    3.38264935046697    5.57512654182295
C        -0.36022642364710    5.06594248312128    7.02465811294544
C        -1.44339258493665    5.91903668349392    7.25035107531456
C        -2.02925459922017    6.01535536903259    8.49724720548077
C        -1.53451277342509    5.27121012492178    9.55632921991631
C        -0.44256089460503    4.44168350769244    9.35535453751598
C         0.14110784963124    4.33966756920474    8.10779896534478
H         1.26849447695849    4.29680121727170    3.20920782855859
H        -4.07512388600280    3.50898009983322    2.23342718823250
H        -4.21275726357801    4.94219314720465    1.22547135679763
H        -4.22183195078529    5.10602396533850    2.97765336920570
H        -2.97907824573217    6.56818191925046    4.13317638084317
H        -2.55138416390138    7.73189007946193    2.87375491551969
H        -1.39710039484717    7.35772376553555    4.15676628387649
H         1.64410543677761    6.77061711451731    1.79054277696092
H         0.82036058593744    7.28118970842354    3.26237210984163
H         0.28274287336056    7.89774001866891    1.69147511173583
H         0.62194687150223    5.01002269766672   -0.81202743454110
H         1.05887771317239    3.48205196537992   -0.03478411965305
H         1.84061088790029    4.97375494930526    0.47069329202751
H        -2.64187612266629    2.38507959873825    0.64150127463778
H        -0.98352075423207    2.33038942547577    0.02222650962789
H        -2.16735713146826    3.41359036799680   -0.71138482871507
H        -3.73243335111928    1.08061753422547    4.69597582546599
H        -2.33994477667102    0.50714655040563    3.75290245805401
H        -3.45670897942024    1.67733194490379    3.05074387759478
H        -1.90182162090850    1.19280574749008    6.56083907773774
H        -0.67018704186164    2.47203627743270    6.71995687422246
H        -0.39117264590430    1.11102239902552    5.61492640074870
H        -3.72205044572925    2.90870922443264    6.30100390050640
H        -3.98597255058085    3.99621384846968    4.92545261402117
H        -2.79791472705032    4.41788475383064    6.17450800061127
H         3.02400130655805    3.43676056751574    2.72663274339869
H         5.14498760566372    3.18524856324059    1.50486289724419
H         5.51232567674629    1.22113429330979    0.04960356959129
H         3.74323054656668   -0.48812416538761   -0.16266266075573
H         1.63640056073759   -0.24735862514846    1.05703742977701
H         1.46975747956155   -0.33076383788947    4.55685709136768
H         0.81412018632595   -2.70541832873838    4.73525007067131
H        -0.91198452140724   -3.62392779561635    3.23086478236273
H        -1.97891337477744   -2.16967096136590    1.54863262520937
H        -1.33560348892833    0.20653841129597    1.38715459812581
H         2.41687254667762    6.50947627597234    6.82582298203171
H         4.73325914467087    5.98937279341522    7.50228774725572
H         5.72332666419502    3.80306180551409    6.92989919390003
H         4.38475703711293    2.13081252607889    5.70212902711877
H         2.05721500552342    2.64969932921577    5.04160069788868
H        -1.81005708059152    6.52719220750825    6.43385264664448
H        -2.86684491171279    6.68243585827315    8.64954515552047
H        -1.98746016148304    5.34822574002008   10.53393585339231
H        -0.04256856736439    3.86912821001857   10.18079192132338
H         0.99999153284898    3.69669712962008    7.96801739638833

