72
CSD_code = SUJDAC | q = 1 | S = 0 | Stoichiometry = C28H41O2Zr(1+) | MND = 12
Zr        9.00684215113898    0.86536754197208    9.26112961331271
C        10.61326479910807   -0.83226280287737    8.35760631888791
C         9.34932573174404   -1.04628712985605    7.76318954730244
C         9.05440915173283    0.07805116806533    6.93426612911529
C        10.12975136726138    0.99079147857882    7.04151761409356
C        10.40101017397494    2.21660944344866    6.21462631174929
C        11.91522482163725    2.40565738244319    6.08306698398128
C        12.57964566030053    2.38846323268279    7.45846268984750
C        12.47309076570369    1.00423834058279    8.10320957554627
C        11.07666021498486    0.45303927691387    7.95801920180925
C        11.33139604832152   -1.78500356163550    9.27254629986160
C         9.88174120021182   -0.68080332088437   10.98783185939844
C        10.53247944904445    0.57220786135032   11.13179016276823
C         9.56621377791850    1.52523547909126   11.56078164222289
C         8.31229294836380    0.86724627234112   11.64845923521476
C         7.02923533724346    1.36759216840678   12.25931690448789
C         6.29804502984890    0.19335777895248   12.91683397446539
C         6.13079860216734   -0.94547513223119   11.91349756099474
C         7.48835769085651   -1.56707500006945   11.57653300810261
C         8.50495439409552   -0.49432473372828   11.27559138134185
C        10.54083624991078   -1.97192161291367   10.58740647195935
O         8.50640789984646    2.61533423407381    8.90785959346313
C         8.54565413957402    3.98974288536177    9.18648075816542
C        10.01294375733851    4.41057278215621    9.41748455483124
C         7.95298985461443    4.77971167954510    8.00351165651092
C         7.71037861374833    4.31279719224585   10.44015136065144
O         6.80598716234598    0.32257986508714    8.79874300717130
C         6.01629873898103    1.44653063600580    8.32806825456010
C         4.71819289078298    0.88835683529314    7.72933866373004
C         4.69121113433081   -0.55087775519101    8.23942256896727
C         6.17928593182213   -0.87217923990185    8.28385247475971
H         8.81652102466915   -1.99069888160029    7.77068794584778
H         8.26019099668696    0.14597355821862    6.19827908405378
H         9.96567446163539    3.10429062070460    6.68547083435249
H         9.94770442417705    2.10779636278862    5.22572298046656
H        12.12569734547268    3.34969049196429    5.57911831240226
H        12.32808739548734    1.59897295254500    5.47458755854128
H        12.09985234094719    3.12853393079816    8.10223522951545
H        13.63181371931683    2.65990124226700    7.36322610970276
H        12.79355721353119    1.06083067044309    9.14923247744744
H        13.16275121718951    0.32169608769166    7.59272674253775
H        12.32634449191026   -1.39323879828175    9.49238833281810
H        11.46024504958570   -2.75518441996434    8.78596046667432
H        11.60546132132155    0.73008043754558   11.13147573366719
H         9.79813772137046    2.50523429342300   11.95948561131027
H         6.37330675497855    1.81570511116903   11.50214057519263
H         7.24448701004374    2.13573763501012   13.00603026597317
H         5.32296133157149    0.52205896093967   13.27798276058825
H         6.87463977720268   -0.15905518676245   13.77336990588805
H         5.66456862340102   -0.54560433702620   11.01036933976425
H         5.47320402829561   -1.71296677743698   12.32379282237534
H         7.39091546679151   -2.29370486563422   10.76174469832796
H         7.84024146216933   -2.12700368879831   12.45112599463970
H        11.21887480632807   -2.31471653326015   11.37402120993046
H         9.77800594184804   -2.74337924152295   10.45477208757944
H        10.49804608564511    4.63037394669804    8.46880997536843
H        10.06489650071784    5.30176226135638   10.03693605266306
H        10.54900985343757    3.59289884087399    9.91433775253414
H         8.42571208428676    4.48573399432541    7.06889896280915
H         6.88443601387733    4.59262449779057    7.92155289644506
H         8.10988477412884    5.84368609170047    8.15425641226345
H         8.12967806719505    3.83989348122872   11.32333750418415
H         7.68834778548876    5.38773592632534   10.59594973460842
H         6.68622227735776    3.96981789446715   10.30596306575842
H         6.60257209904452    2.01038035815140    7.59074338972472
H         5.82386295418107    2.08413306768959    9.19779788585195
H         4.76057173473891    0.90287442358274    6.64056595220232
H         3.84775775245667    1.45750504223638    8.04529376765313
H         4.14414674265490   -1.22141460466450    7.58276366601493
H         4.25331647108932   -0.60206630068000    9.23648137708156
H         6.42685245953705   -1.70290429748071    8.94674077164282
H         6.54221672926950   -1.08165749413011    7.26902837432395

