126
CSD_code = SUJFIM | q = 1 | S = 0 | Stoichiometry = C42H78ClFeP4(1+) | MND = 5
Fe       11.67863858232603    5.21086718887036    3.72538448894231
Cl       11.27206148817292    6.29686780757573    5.40032775272954
P        12.49266629736481    4.12360972559155    2.06490350801601
P         9.76065625966746    4.42238988236121    2.97672772130739
P        12.46724048052283    7.10579960780319    2.64355142183308
P        12.75589007053922    3.64965069823632    4.96540990056428
C        11.26404205078162    3.14566103546810    1.10003033121986
C         9.95513429667846    3.91449822435520    1.20244083982683
C        13.27208725557233    5.16586083060253    0.77026522523540
C        13.73728612982968    6.45138857698543    1.43812169576439
C        13.73537280436077    2.84771120807526    2.51515287540545
C        13.27158370526049    2.25900683369193    3.84346898437431
C         8.27894758898137    5.54812760130179    2.84416185919350
C         6.98952981514693    4.89706717643761    2.33990470948626
C         5.94996954579160    5.98455069589721    2.06600125541211
C         5.66876214909963    6.79098431274106    3.32955533929913
C         6.95578931149746    7.41801106685749    3.85598813192814
C         8.00436919016086    6.33984588281948    4.12332949828851
C         9.26211251823120    2.80896631069233    3.79403333984568
C         8.47127145836863    1.79963853357707    2.95860890909357
C         8.26510664911410    0.51264212420868    3.75969866487590
C         7.53961567564674    0.79309475496497    5.07058193520750
C         8.33479426706016    1.79532672937989    5.89983920187802
C         8.53917363216295    3.08650989146125    5.11224769415734
C        13.61457234942103    8.17724503992920    3.68411998429851
C        14.65872446913557    8.98072021368885    2.89947520029248
C        15.65977135152828    9.61431021783219    3.86819324679836
C        14.96168295556727   10.52094540837429    4.87491260405170
C        13.88113259231844    9.74708978347757    5.62120965187022
C        12.89043673884190    9.13702736466387    4.63116970398969
C        11.53140115104019    8.36228210979683    1.63149230917911
C        10.25760954861481    8.82977060428497   -0.49023444451130
C        11.08046301469381    7.80126508738219    0.28370600114983
C         9.04591676054845    9.28117440834646    0.31678759568896
C         9.49950954217431    9.85309963708040    1.65467568590031
C        10.30778031804544    8.81677469176214    2.42883371715736
C        14.42052975460132    4.47662377935445    5.30024707019479
C        15.65371504119892    3.56900436611953    5.36158133774962
C        16.92144631872113    4.41942596076287    5.46528507472935
C        16.88276274612033    5.30862699328216    6.70244345027524
C        15.65015105221198    6.20373276731907    6.65775508696368
C        14.38105502225014    5.36086780253131    6.54865054230317
C        12.20668813295422    2.71348311173749    6.48102144651576
C        13.26342750811829    1.85269123548401    7.17501757107582
C        11.52308334944854    3.62446311822085    7.50479666790117
C        10.88054926149789    2.79485663230183    8.61408684468546
C        11.91741978442128    1.90475257115929    9.29106865634608
C        12.59795264125356    1.00838555037521    8.26161581752381
H        11.17094033944650    2.15774055991045    1.56140968635968
H        11.60266015167838    3.01737532989224    0.06704804727698
H        10.01970239107461    4.83808822019835    0.61818225676693
H         9.10365936201963    3.33995411740241    0.83669696007186
H        12.51111619737844    5.36778451855629    0.01171153628991
H        14.09964465835091    4.62623223662606    0.29782605184948
H        14.62972568385907    6.23392280504919    2.03523706910759
H        13.99186801327062    7.21489356360780    0.70003629848199
H        14.70786647358584    3.33866385397213    2.61527290847860
H        13.80683033653682    2.09388611769150    1.72423478191161
H        12.38420230079177    1.63709274631998    3.68510879099501
H        14.03669295234809    1.63148771326934    4.30271307806188
H         8.61170550634096    6.26019823400279    2.07182237139092
H         7.16964449903609    4.33091151021938    1.42439694266648
H         6.58939075676328    4.21979749829299    3.09448270117754
H         5.03004201197418    5.52052432129693    1.70627655587979
H         6.31485631882685    6.65096159810745    1.28078216903013
H         4.93620997889717    7.57004762033259    3.11550083229627
H         5.24379202819833    6.13514434607058    4.09239373864497
H         7.33545569514342    8.13119367558494    3.12170466415275
H         6.75550319481267    7.96506929812481    4.77805835755057
H         7.63331404129626    5.67886281091988    4.90577090943560
H         8.92612362010317    6.79628931489113    4.48906577941735
H        10.23735667876138    2.35793678124587    4.04121061340526
H         7.49708992851129    2.20770314458452    2.69167498296383
H         8.99937556833016    1.54803728310583    2.03782213413571
H         9.23539952766100    0.05624156156136    3.97314428707337
H         7.69146588276825   -0.19486577187786    3.15884570252609
H         7.41083127692539   -0.13506141334697    5.62892752147932
H         6.54663808867563    1.19538325462153    4.86018352712895
H         7.80925803595198    2.01457090284090    6.83057301535354
H         9.30215458498144    1.35644590250284    6.15357790328572
H         9.11387394321142    3.80941065058633    5.69684193886136
H         7.55786161601067    3.51488409940089    4.90807611630433
H        14.14291468311409    7.43485926570224    4.30282911021294
H        14.16747989601975    9.77431189665454    2.33353737284383
H        15.21416295729198    8.35952251087784    2.19751334319105
H        16.39430798111562   10.18638927263195    3.29834940923651
H        16.19773671959515    8.82615817070479    4.40136587105053
H        14.50708399550591   11.36396587304609    4.35005235337893
H        15.69139457739301   10.92198893759114    5.57953147964251
H        14.33744192361776    8.95678979315482    6.22074973636521
H        13.34764611682167   10.41260733996738    6.30139436245070
H        12.44375638489751    9.94907988542005    4.05480077802125
H        12.10244814485110    8.62079018036755    5.17994075114706
H        12.20531184386597    9.21044142996233    1.45941361158756
H         9.93698056652355    8.39747185168213   -1.44023412402100
H        10.88430812089000    9.69559931878361   -0.71431154848760
H        11.94180714975557    7.51711784498481   -0.32353281141479
H        10.47125012655475    6.90903036394643    0.45893488869550
H         8.38158974864198    8.42986272272636    0.48744705774495
H         8.48641634003640   10.03165641281318   -0.24271759377701
H        10.11379431633298   10.73900045704002    1.47935213595735
H         8.63599049321872   10.16190007913477    2.24642326002812
H         9.68876245636864    7.94129351992930    2.62801059363541
H        10.60129905120985    9.22795692692597    3.39347501836006
H        14.53487937969008    5.14002005767496    4.42133382666121
H        15.59812458612379    2.91698586566000    6.23232324535636
H        15.73862597890535    2.94021960012169    4.47516266713605
H        17.01915581828194    5.04309830118994    4.57200857332457
H        17.79076059571380    3.76061346035034    5.50503679092595
H        17.78619297475064    5.91804818097485    6.75179152250118
H        16.85175816072556    4.68621768611716    7.59915503407179
H        15.59995382878437    6.81999936226369    7.55709087196447
H        15.72733239788004    6.87421705829565    5.79790812706182
H        13.50467335774094    6.01342692407859    6.52695788360584
H        14.31331174240155    4.73152223792386    7.43709787557765
H        11.43903097499081    2.03855014069238    6.06998163473539
H        14.01138256842248    2.49025519938935    7.64736486384015
H        13.76577756001020    1.19511493547881    6.46302455992213
H        12.25140209623313    4.30141545469230    7.95092668620703
H        10.76509980247106    4.23767973998580    7.01538399078250
H        10.08743075669935    2.17189005925130    8.19751370281085
H        10.42693862182535    3.46372966317140    9.34687088658631
H        12.66779266616236    2.52710438387297    9.78360374904026
H        11.43874452139599    1.29297544650614   10.05661111210296
H        13.35088998379585    0.38556000354152    8.74773423629772
H        11.85832376273659    0.34375862392964    7.80853676779857

