72
CSD_code = SUJFAE | q = 0 | S = 0 | Stoichiometry = C35H29NO6W | MND = 6
N        -3.55468527340428    1.30213253223122    5.36341807078221
C        -3.14294686444602    1.98460947273217    6.58137237421852
C        -1.98803162276233    2.81734984045558    6.07196641561028
C        -1.77228051355907    2.61210413915879    4.72512480732739
C        -2.76061903066748    1.67669441928415    4.35450790527710
C        -4.67121352012015    0.37893913692766    5.38859073378286
H        -5.03575056360521    0.37991183923940    6.42348342841018
C        -4.25288286601790   -1.05081601349917    5.03631280553792
H        -3.43075175980658   -1.36128169233748    5.68507875358528
H        -3.90956571964782   -1.08761074678913    4.00191491641150
C        -5.44441323113884   -1.98801115397066    5.21022459540016
H        -5.14888586592325   -3.00594414968093    4.95152033976659
H        -5.75958087234352   -1.98663518153276    6.25663569395893
C        -6.60571991532011   -1.54196439613197    4.32700608932409
H        -6.30508048253704   -1.60030516476949    3.27869544015374
H        -7.45772793434473   -2.20853321728397    4.47000677364643
C        -7.00819394892755   -0.10786569395475    4.65712079345500
H        -7.36513560095911   -0.05661550276522    5.68875149735627
H        -7.82329694111557    0.21005578471372    4.00521596012985
C        -5.81894394965410    0.83208078877894    4.48274560502997
H        -5.49258131089444    0.81607258130210    3.44234620847184
H        -6.10524863091676    1.85436909186935    4.73968902505054
C        -4.27524347794212    2.76185968962597    7.21071473721659
C        -4.54397982842619    2.27658470377661    8.50048108808935
C        -5.55438110411971    2.84617611884448    9.25632799508420
H        -5.76871063504253    2.48625663279306   10.25097079705139
C        -6.28448148276556    3.89014543831894    8.70836251461554
H        -7.07583861504484    4.34511820355306    9.28485642636140
C        -6.01279948576987    4.36230827032353    7.43297682582156
H        -6.59314341546250    5.17814967590880    7.03001626912213
C        -4.99883047104817    3.80061470117289    6.66720523525484
H        -4.77481772137255    4.17221000234985    5.67795733701133
C        -2.77993823605431    1.00952389521188    7.67816801576198
C        -3.61748032506642    1.19053275272282    8.78997997544465
C        -3.45972375028782    0.39242270632174    9.91024409116462
H        -4.09326138193641    0.52325484409629   10.77413141733328
C        -2.46859991505116   -0.57751787160623    9.89926788921018
H        -2.33250474758154   -1.20784570842262   10.76514519141084
C        -1.64585453178512   -0.74891256718652    8.79601119299577
H        -0.87902752040171   -1.50812879939833    8.81355147775829
C        -1.79305157467074    0.04845352410943    7.66796642675218
H        -1.14739052783860   -0.07173143301346    6.81028705142169
O        -1.23562491491208    3.64564782937029    6.77542082853363
C        -1.44827014391492    3.87302044541642    8.15844600304556
H        -1.35187266956243    2.92979829344251    8.71195239057721
H        -2.45770382359245    4.27321624530919    8.32068531958309
C        -0.39612972577482    4.87103555831267    8.61155542148652
H        -0.51786936857112    5.08613885127578    9.66906079051741
H        -0.49378471363168    5.79123027644061    8.04234245425375
H         0.59590446132227    4.46362886012102    8.43783811377656
C        -2.88232235664630    1.17380153433283    2.97979796967034
C        -2.15892968747698    0.05517988820783    2.57907820530000
H        -1.54061950851249   -0.46580837929138    3.29555323181016
C        -2.21921071448299   -0.37604239667079    1.26626528213084
H        -1.64976906514769   -1.24120263627598    0.96192304005010
C        -2.99428141584100    0.30674851229806    0.34443415420046
H        -3.03328282414612   -0.02698375145058   -0.68152992450895
C        -3.70906223791647    1.42561800868186    0.73693945069192
H        -4.30453290734309    1.96870827194469    0.01871817015180
C        -3.65275166129078    1.86202337895920    2.04821358803395
H        -4.19638905437336    2.74448767073883    2.35256937218592
W        -0.14613350248403    3.63878561746197    3.61304721683020
C         1.07439874314360    3.21826051040181    5.12963241123254
O         1.78808338621215    3.01612782075704    6.00372084024101
C        -0.64716950750004    5.32884374409088    4.54041606252115
O        -0.88780977205638    6.31011819346479    5.08197853031561
C         1.32407154389070    4.57768700169681    2.66320061386101
O         2.17394752844664    5.11802862146774    2.11200985649693
C        -1.35711845012658    4.08796530240815    2.09784890685961
C         0.39450906873510    1.96070475463596    2.68793783427341
O         0.77259168045264    1.04200647738045    2.11392363935071
O        -1.98997322113591    4.38501400161914    1.18817003895893

