80
CSD_code = SUJLAK | q = 1 | S = 0 | Stoichiometry = C32H43OP2PdS(1+) | MND = 5
Pd        7.93920174255060   16.07441850492985    3.96230335579957
C         8.87758290145427   15.91436909170239    2.05035438405579
C         9.75553466147919   16.50168015344904    2.97889761346470
C        10.03568445425114   15.75053022793910    4.13077192505989
C        10.10268432045529   14.23693986737001    4.02822788452937
C        10.12940991578956   13.81649544561582    2.55942307309727
C         8.92236946140833   14.41333317669158    1.83760819656577
P         5.79695007355950   16.11176337681866    3.05527991555957
C         5.47093870248505   17.17331812345898    1.57813195997612
C         3.95368612982967   17.35642747925389    1.52918689792985
C         3.44220816792646   17.56906340304294    2.95566091950936
C         4.29807121058965   16.77539553544694    3.96498549617361
C         6.19955656237461   18.50046435747511    1.80407606105751
C         3.50914665562662   15.70377758392699    4.71015452753042
C         5.28508413077689   14.40225593380804    2.64318743176931
C         4.56001381245904   13.96918671103345    1.54062746995417
C         4.08085187235798   12.66403333595598    1.46677500216767
C         4.29610973048338   11.80226114289632    2.53449201652378
C         5.07284850397714   12.19555413692789    3.61532532438483
C         5.61811844487244   13.46878086117160    3.63116034291097
C         3.32379839078290   12.20854048905720    0.25996291312380
O         6.52793908782688   13.88013151406349    4.57811489311842
S         5.33556144845233   11.10095634680249    4.98567731047872
C         6.30861673219545   13.52109473540799    5.88537841247861
C         5.74164133988763   12.30120898083985    6.23281733127442
C         5.54180932845021   11.99849494755397    7.56940600155829
C         5.91450133950347   12.89570637210707    8.56522275680894
C         6.49714574436198   14.10266676079495    8.20352233786383
C         6.69329463043114   14.43937397881523    6.86626639914851
C         5.70731961736691   12.53799283207306   10.00273211206681
P         7.52872370384427   15.95702585538259    6.26637605733706
C         6.56002837468205   17.40794430665269    6.88483152198582
C         6.85064192786725   17.52382709566205    8.38344837422432
C         8.29216961266944   17.07491396652836    8.68043572476599
C         8.89031065787225   16.29861940380903    7.49067880324919
C         7.04751114903112   18.62229915144181    6.08707581238388
C         9.69272827064346   15.06587072187597    7.89010917107911
H         8.57909302919844   16.50047447059820    1.18283513723816
H        10.01589758592550   17.55818445294972    2.92072861494169
H        10.65783683406590   16.20539098382480    4.89944291391831
H         9.22984315154603   13.76915325587822    4.51908548949029
H        10.99786540969167   13.87517579715572    4.54031223635409
H        10.11839728923357   12.72932858765909    2.47749515725046
H        11.04698078865769   14.18756556929782    2.09573220711607
H         8.97874848332004   14.20188737026165    0.76706081770934
H         8.00231463438857   13.93456483926009    2.21252421080970
H         5.85103268527393   16.69279245017754    0.67054455573054
H         3.47913943617405   16.47212177264113    1.10554230676065
H         3.69360090456044   18.20554770841422    0.89611348868129
H         2.40086476482613   17.25667570416054    3.02542194239319
H         3.47796280645412   18.62972359730732    3.20544662043741
H         4.70173748609348   17.47144101077648    4.70844168948037
H         7.24530761662637   18.33010190552789    2.08215477108125
H         6.17808365128549   19.11106802562973    0.90423495132075
H         5.72653836220238   19.06172703633811    2.60748355870574
H         4.14913628660002   15.16472493751739    5.40906996777311
H         2.70736938054627   16.16773382116969    5.28164899049581
H         3.06757287784421   14.98880741762533    4.01894105252970
H         4.36090559680783   14.64377578177359    0.72322340554682
H         3.87918643551937   10.80742704933412    2.52615068175662
H         2.76885323899322   11.29882101452552    0.46898486834815
H         2.63074757535578   12.97620338923137   -0.07662481555188
H         4.01660741274837   12.00451359177385   -0.55613282551141
H         5.10603180467310   11.04725168523753    7.83262141105239
H         6.79878151098295   14.78882806484824    8.97718653579295
H         5.92950491671269   13.37866612418133   10.65386417639324
H         4.67954411222112   12.22422658559953   10.17222719042503
H         6.35480334687303   11.70653833242690   10.27804360394095
H         5.48994989075060   17.25515138249587    6.71580376503368
H         6.14137637192787   16.90201915320995    8.93091835743675
H         6.69249575413740   18.55219055628478    8.71010423884801
H         8.31209719736879   16.45233817534067    9.57515037890852
H         8.91968136010434   17.94175700766285    8.88903833399081
H         9.56274772555104   16.97139593089985    6.93973075835798
H         7.06810559912346   18.39467354973366    5.00769899245773
H         6.39756698928885   19.47980291314771    6.24893748407962
H         8.05435907841230   18.89866582543650    6.39517060063821
H        10.09139676234406   14.56691099461353    7.00803178328725
H        10.52744456229247   15.35577951200894    8.52534127886046
H         9.07969648268396   14.35175675828367    8.43458338477333

