57
CSD_code = SUJVUP | q = 0 | S = 0 | Stoichiometry = C29H23NO3Pt | MND = 4
Pt        7.60819561130511   -1.64878660432733    3.56130424329087
N         8.68824079478106   -0.20262453275492    2.81277244389431
O         8.96973291344099   -1.44897066631245    8.83692469893651
O         6.59384157336967   -3.16193302542434    4.43787194663141
O         6.79845565269154   -2.27365255845233    1.68113372669199
C         8.35234412864746   -0.91619011539522    5.24942595569876
C         8.23926956645305   -1.47251336001603    6.52467284498566
H         7.70018397967664   -2.40049776714325    6.63022295253806
C         8.87580149247468   -0.88877219753832    7.60116052213803
C         9.47348775807497    0.39606663010689    7.46436790152350
C        10.14225636480430    0.99823509362378    8.55791201866232
H        10.19458836096248    0.45015071988017    9.48495723960634
C        10.74516058245116    2.20624261447151    8.41702670622832
H        11.33391019761300    2.63003575157947    9.21755172508749
C        10.54008850899174    2.97743380509117    7.24685235318746
C        11.09615618055965    4.27992250361443    7.13946080238604
H        11.74913158291191    4.62081239399071    7.93035750332005
C        10.83396993145840    5.06695028695119    6.06807255078371
H        11.29686554415358    6.03782873913667    5.96299969160939
C         9.87481412842896    4.66410580969353    5.10131195215917
C         9.46298490383833    5.54308944097873    4.08465108069189
H         9.94808802462860    6.50603263258891    4.00671204636132
C         8.44803813199626    5.20459647670238    3.22979150612176
H         8.13703243234338    5.88547152662862    2.45104532663500
C         7.77856202952599    3.98992183731914    3.40190673902123
H         6.92883197616796    3.75498382893872    2.77794138881566
C         8.18499822524602    3.10088441617736    4.36299167380314
H         7.62733599876795    2.18918429403860    4.50922012098319
C         9.28293332331892    3.38000812033977    5.19807793906678
C         9.75959278999511    2.46121728141625    6.19636924193683
C         9.41793638333005    1.06821600516669    6.21922117949097
C         9.02524791356485    0.30535391385158    5.08509456354745
C         9.35592334663666    0.58142953459391    3.69967823632320
C        10.35220290408081    1.44994554420198    3.24479875595643
H        10.94259177148022    1.99987488226076    3.95821504064761
C        10.58842766577242    1.58122637100051    1.89299201807121
H        11.35169921156012    2.25544644298541    1.53571090871339
C         9.83261411207017    0.83008053470008    0.99940566828443
H         9.97292159961117    0.92019774390821   -0.06549236506430
C         8.91438449557262   -0.06654783549896    1.50713716143643
H         8.33282302256652   -0.70454476724373    0.85488590235115
C         8.39821303755034   -2.71802396312672    9.04108818671454
H         8.62745723698128   -2.98202855921165   10.07273384072195
H         8.83132692946596   -3.46453195319263    8.36834337614258
H         7.31243118345439   -2.69448937183807    8.90610593264170
C         5.25509031013209   -5.07375878091324    4.77129824323020
H         5.51331109887924   -4.85852846697335    5.80472667638872
H         5.63763304983707   -6.05675203505013    4.50419614176616
H         4.17321441662914   -5.08764973102264    4.66353150070646
C         5.86061795853551   -4.02148099287909    3.86360264357446
C         5.55010128654399   -4.10847346980194    2.50890029146612
H         4.89261161545716   -4.90746588735833    2.20188554466137
C         6.01758192626793   -3.24311864867814    1.51367155251746
C         5.54061546345423   -3.50966007381856    0.10012214900021
H         5.91309663960193   -2.73786271124231   -0.56884819448206
H         4.45357455392775   -3.52278962330064    0.06770159530801
H         5.90345817794926   -4.47939747744972   -0.23497339289828

