81
CSD_code = SUJWIF | q = 0 | S = 0 | Stoichiometry = C36H39N3P2Ru | MND = 8
Ru        3.83747259162005    2.77444433196326    9.06632840592673
P         1.61561815366359    2.89285290048021    8.69005379006316
C         0.58849242090081    4.13773322032037    9.54797646916252
C         1.17040898597216    4.83669505859611   10.59694134048233
H         2.21182723159310    4.63701686520651   10.82511259628619
C         0.43431048428275    5.75573719521615   11.32243763018743
H         0.89104447926312    6.29738529525881   12.13903602026863
C        -0.89294543484215    5.98165594203804   10.99658227907107
H        -1.47214348597294    6.70109746321964   11.55679717945723
C        -1.47986226348598    5.28638036043492    9.95036315358154
H        -2.51554602563846    5.46500681226500    9.69939629757788
C        -0.74535019410339    4.36467527524894    9.22701875170286
H        -1.19957349408175    3.82351821095129    8.40774693247715
C         0.95710002106375    3.00005531258256    7.00074472603793
C         0.61792643929507    1.88841270029558    6.23789020145778
H         0.65910339499957    0.90057060905388    6.67184379073701
C         0.24380057963388    2.04571955074070    4.91527874110395
H        -0.01402978033379    1.17802835164791    4.32604781549288
C         0.21283695093565    3.30536581579679    4.34161250271228
H        -0.07032505051845    3.42114221434784    3.30588495048149
C         0.55385398117389    4.41756433358116    5.09482806627654
H         0.53469118503889    5.40160401579911    4.64838708197339
C         0.92755509063180    4.26402922488029    6.41526807186558
H         1.19382119421962    5.12618549748925    7.01497866320919
C         0.85595299871512    1.35761572561318    9.40161814880428
H        -0.23695803231095    1.41651684941156    9.36932085025214
H         1.20815308257745    0.51464246285275    8.79882022468811
C         1.38145640398593    1.21702433298020   10.82529349004236
H         1.10954323899812    0.25051617623197   11.25903283516514
H         0.96899969661490    2.01540596351000   11.44961387551764
P         3.23722485491384    1.40724309787858   10.76146260838027
C         3.66612765230835    1.83053902048784   12.48425078779049
C         2.96494266230071    2.80150520314612   13.19366896600718
H         2.08846021106937    3.26135776649491   12.76068717879884
C         3.38373696053988    3.18972593928668   14.45332317330602
H         2.82517611443137    3.93761071623959   14.99772955592278
C         4.51885366990754    2.62897152086351   15.01540787865210
H         4.84650534209509    2.93610773833666   15.99757282124130
C         5.23588934926295    1.67733976106321   14.30875055497786
H         6.12691098282117    1.24215529197464   14.73821104060766
C         4.81593895056633    1.28382938551357   13.05142810655400
H         5.37577989178636    0.53891434463888   12.50240210067861
C         3.75657023895982   -0.34576451080757   10.73448642919604
C         4.61100405554842   -0.76943153418118    9.72551232377119
H         4.92311032047912   -0.05218029805448    8.97666302453921
C         5.03327581827759   -2.08634663166950    9.67392896462847
H         5.69298681784439   -2.41269778885536    8.88303882006350
C         4.60750672756756   -2.98516057431968   10.63704780177199
H         4.93420745216083   -4.01421334267518   10.59968952388663
C         3.76384513973313   -2.56520493799126   11.65461638262847
H         3.43899112642313   -3.26662558903140   12.40990852281974
C         3.34010286005502   -1.25104998079854   11.70754722356067
H         2.69806388513871   -0.91917417056995   12.51326697040119
N         3.34330519890187    1.23663979710772    7.67587882817104
N         3.66082849859820    1.33957534448974    6.55437306163829
N         3.92100004969676    1.31293876610577    5.44533811189690
C         4.93998511507986    4.13995540313262    7.72840224534458
C         4.54454645340227    4.90385121833547    8.87888967178698
C         5.14733704781367    4.32278616630513   10.02985403007170
C         5.96892532857918    3.21699759743395    9.58375646419913
C         5.87018684998651    3.13828000008105    8.17080907906232
C         4.73254621503338    4.54945611399634    6.29993161447078
H         5.57682006053834    5.15570568987501    5.96199789547980
H         3.82192790583213    5.13562596772530    6.18904006144740
H         4.65656863183003    3.68206904462098    5.64387254089790
C         3.82234294973190    6.21669479643925    8.81658239520422
H         3.49391145611220    6.54256755159002    9.80063365282918
H         2.94950228623974    6.16387755352040    8.16731365084173
H         4.49626025974636    6.97555342111737    8.41236453140364
C         5.23273907995096    4.93861898098444   11.39627765209277
H         6.13424899332161    5.55287007539022   11.46219747156309
H         5.28528872707405    4.17809572387269   12.17393620276995
H         4.37522769543278    5.57612337467831   11.60410509391997
C         6.99187427231771    2.51574728537363   10.42876270604413
H         7.15594575324405    1.49428716863176   10.08859334904184
H         6.68371262936892    2.48448679380801   11.47219880430867
H         7.94303841706651    3.05077361646942   10.36901584007072
C         6.72343093700439    2.29424822758946    7.27391715416549
H         7.61299888665572    2.86134040895395    6.98875445388916
H         6.19703126204615    2.01909344471579    6.36098049469324
H         7.04922311134035    1.38409197269185    7.77566730043983

