99
CSD_code = SUJWUR | q = 0 | S = 0 | Stoichiometry = C46H46N4P2Ru | MND = 8
Ru        9.37905257634403    2.06521618155374    4.33611956748052
N         8.34293530394909    2.98816540404101    2.94023859935455
N         7.04497382158401    3.13586515901134    3.08891264233069
C         6.63013398931521    3.87712366479758    2.05763533025916
C         7.76720008916871    4.16010817589710    1.28786914966080
N         8.82295102660508    3.56808442040712    1.89901271125422
C         5.21757446913031    4.28985790334747    1.83618110328688
H         5.21409651531467    5.25456313538121    1.31884649581830
H         4.72700738766668    4.40726029815667    2.80455131528991
C         4.46765993834154    3.27945717255449    1.00410662765692
C         3.32381058433591    2.66503666817909    1.49160481820246
H         2.97745888104056    2.89343347100910    2.49002050701867
C         2.61396880312057    1.77365349840943    0.70637665738453
H         1.71586873092550    1.31432974882883    1.09379036530018
C         3.04961084630535    1.47487603259532   -0.57192165189863
H         2.49342616754819    0.78285471945908   -1.18768982022768
C         4.20077808098669    2.06994192482178   -1.05971848147057
H         4.54815535945344    1.84119763714938   -2.05677291401559
C         4.90276719442009    2.96879423005544   -0.27852255832686
H         5.78927252090720    3.44593204249056   -0.67142916471108
C         7.86057442743367    4.93426561816857    0.13145654364885
N         7.90028659294354    5.58482783399647   -0.81578142400211
C        11.56934748706610    2.14322676072405    4.89455497032553
C        11.41369781825576    2.35188870550174    3.48996918064018
C        10.84422101428596    1.16095235259669    2.92938684717598
C        10.63285242513212    0.23093200424689    3.98822189517349
C        11.06483901207333    0.84047275378450    5.21673914559159
C        12.37235040941037    3.02965826333516    5.80028554003775
H        12.19244667121800    2.80274544629173    6.84814692211803
H        12.14156986384477    4.08286725824681    5.64254773719664
H        13.43470067283369    2.87961194759216    5.59478131542550
C        12.01023553448850    3.45871470538752    2.67281835684247
H        12.36336492607941    4.27097336056781    3.30509023131988
H        11.27827347241683    3.85138848278381    1.96690285067155
H        12.86002786265403    3.07569902187891    2.10333428276394
C        10.75462152716566    0.89217321954592    1.45747170091631
H        11.76056817839988    0.77710281006928    1.04743509262152
H        10.27785056015332    1.72632648604103    0.94172236039145
H        10.19757861557984   -0.02007055365850    1.25110804076709
C        10.29019713742171   -1.21949758855614    3.82185601176706
H         9.55619974765859   -1.36989374376357    3.03143443075892
H         9.88946206015361   -1.63878449265269    4.74225589796265
H        11.19388076208778   -1.77442196143642    3.55834910988222
C        11.30869317406126    0.08722256668401    6.49361897056459
H        12.19716160421436   -0.53949103937755    6.38332899459606
H        10.46827852724030   -0.56057550229662    6.74067376897452
H        11.47738329985038    0.76546637572552    7.32739902672363
P         7.35634930043539    1.12142907210826    4.70119291354744
C         6.19595526918692    2.18710780906754    5.70214811386688
H         5.55106177766280    2.67766861783765    4.96992301011497
H         5.59158601460332    1.55689545199263    6.36192685739101
C         6.97943700736173    3.21671481786503    6.50766732687537
H         7.29880690455658    2.78898356062855    7.46353394112639
H         6.38229313740981    4.10405399925516    6.73769315266999
P         8.55300566103248    3.71403663086061    5.64581786128867
C         6.30325580487933    0.49603014197162    3.35718658035280
C         6.87206633256649    0.30634745238115    2.10432121790518
H         7.90395828706634    0.59752163545103    1.94962514727934
C         6.12775766592955   -0.23464885117894    1.07274449226926
H         6.57175660251668   -0.37113794539973    0.09734061358326
C         4.81250445069301   -0.60588586758087    1.29411945196644
H         4.23197849707948   -1.03855169214207    0.49347601247237
C         4.24084199042448   -0.42071666066590    2.54231818890375
H         3.21452845900697   -0.71176305079254    2.71271944857392
C         4.97972326352358    0.12918292810097    3.57320381086879
H         4.53663367067545    0.26024839721035    4.55033532869187
C         7.42092837821124   -0.38150213729397    5.74463175923633
C         7.19097674625675   -1.65783322013601    5.24121709051513
H         6.90370439152140   -1.78504362340047    4.20723182959812
C         7.32573783315461   -2.76686986807076    6.05875667319934
H         7.14236202928555   -3.75298537768102    5.65688237160572
C         7.69663069685126   -2.61854783781729    7.38440176819933
H         7.79999610168130   -3.48595042864593    8.01954367982531
C         7.94368989138938   -1.35218884856941    7.89105997604397
H         8.24364718364461   -1.23121678184606    8.92249924257755
C         7.81481204892230   -0.24603883130962    7.07320007210440
H         8.02944721642628    0.74147330402790    7.45751971392487
C         9.45467007683853    4.37150413602003    7.08793993647891
C         9.89918960455840    3.43336886764690    8.01626356832341
H         9.70716262613755    2.38413055054978    7.82662093752204
C        10.58636157574011    3.83196846835057    9.14572684504480
H        10.92493892226500    3.09853276521663    9.86395929686100
C        10.84786401588723    5.17782131366302    9.35255063586848
H        11.38891358931418    5.49392078683308   10.23211639766805
C        10.41887998209019    6.11481838380846    8.42817211629683
H        10.62548341628627    7.16313570220214    8.58765106989736
C         9.72325172839617    5.71787519688779    7.29841742031364
H         9.38833406352092    6.45437821312521    6.58206588329349
C         8.14657838663059    5.24276201434289    4.73420637193207
C         6.90076280712856    5.84894424787647    4.64108079692143
H         6.05704062946008    5.46627668542242    5.19596464457010
C         6.72482393535631    6.94270382246727    3.80970079156799
H         5.75039776161774    7.40395538518390    3.73419828160614
C         7.78125378580799    7.43619191601295    3.06365107729170
H         7.63118349612775    8.27675653026993    2.40289431488295
C         9.02860009916895    6.83800864311843    3.15246970037105
H         9.85193427443902    7.21085165691193    2.56146610780306
C         9.20547953057910    5.74609660486043    3.97868962543191
H        10.16589741028066    5.24745273425746    4.04013743051474

