27
CSD_code = SUJYAY | q = 0 | S = 0 | Stoichiometry = C12H8ClN3O2Pd | MND = 4
Pd        6.00663620786178    0.53141907684187    1.74290090427163
Cl        6.00678540238781   -1.70545523939968    1.74389972365475
O         7.44293750239586    4.29642836770278    1.41317889230070
N         6.00679754272110    2.50371856970254    1.74364781758848
C         7.19465318493695    3.11437779594471    1.47368056170556
N         7.92573652851845    0.76011646974491    1.32637271050531
C         8.26816446626292    2.06218727118452    1.23912127573407
C         9.56600627605660    2.45588212804674    0.94447360855008
H         9.77492587339497    3.51329970569309    0.88741279399493
C        10.53770196373509    1.49106975929170    0.73605729856951
H        11.55345545135256    1.77307313563627    0.50498182164388
C        10.17481800370008    0.15602931432732    0.83209097438536
H        10.89701212729676   -0.63007240660064    0.68008360851163
C         8.86002143419595   -0.16870050938140    1.12808516185741
H         8.53701078486725   -1.20140697571023    1.21000095296705
O         4.57068186155753    4.29642413498605    2.07424509484580
C         4.81894777594940    3.11437601120818    2.01365144571133
N         4.08790436148984    0.76011408020258    2.16113368242663
C         3.74545719407392    2.06218552786509    2.24830130036288
C         2.44761073367125    2.45587903053451    2.54293332569625
H         2.23868396379238    3.51329663601441    2.59997541407524
C         1.47591249015958    1.49106333099885    2.75132999076205
H         0.46015323385547    1.77306430705794    2.98238396987809
C         1.83879674755508    0.15602302134071    2.65528520482103
H         1.11658754197572   -0.63007917697771    2.80721762932644
C         3.15360944520620   -0.16870513025705    2.35936071678319
H         3.47659190102926   -1.20140823599789    2.27729411907092

