103
CSD_code = SUKHIQ | q = 0 | S = 0 | Stoichiometry = C39H57O6Y | MND = 6
Y         0.10302228102139    9.43761504790888    4.14228215493205
O        -1.42908389089503    8.51519832057394    3.24018187953569
C        -1.59520936822619    7.27224160573260    2.80313524499669
O         1.66509137233798    9.36040121156154    2.93640909837563
C        -1.32346571554076    6.93824054529226    1.45758042684433
O         0.39478491265734    8.56193546829890    5.90056789187158
C        -1.57441263138151    5.65834070221391    0.99699210286135
H        -1.36081427762713    5.42271720999768   -0.03773349874444
O        -1.85983896929668   10.67379389573442    5.21429899434817
C        -2.08234371311612    4.66928490536317    1.82812940473895
O        -0.49309422037362   11.26980863132603    2.41264587938373
C        -2.31886504011822    4.99032431727870    3.15726174018841
H        -2.69473141448445    4.22735174588798    3.82654683835335
O         1.01963480305660   11.64733797756924    5.15962773047568
C        -2.08469273323505    6.25921358563033    3.65617516555801
C        -0.73292855313125    7.98530046836881    0.55840303571944
H        -1.51237576390713    8.64991268927816    0.18152123608128
H        -0.22954026851661    7.52817101459368   -0.29160071950349
H        -0.01481277021835    8.58164625880523    1.12780382005098
C        -2.32789118951724    3.28226406303936    1.30993802405515
H        -1.40718725797379    2.69756967014861    1.34264625570158
H        -2.66986527388241    3.30987229330217    0.27708755812403
H        -3.07393445238352    2.76985681561870    1.91337558783749
C        -2.32446909436047    6.57977937037498    5.10232324210469
H        -3.25893819800607    7.13133270462628    5.22523270202317
H        -1.50767849210108    7.20191348879592    5.47851252661124
H        -2.38354872396622    5.66872501384795    5.69428290419660
C         2.77400163432883    8.66584901623086    2.71338731815098
C         2.82274103255366    7.25716075689777    2.81114059028311
C         4.00066213470099    6.58903100648191    2.52631403451807
H         4.01680748222380    5.50971440059599    2.60422070135650
C         5.15856712006844    7.25644340907317    2.15186311469526
C         5.11700029074538    8.64039792955746    2.08797057878197
H         6.01092330798048    9.18873877538939    1.81979583208089
C         3.96134528030212    9.34723888231264    2.36765433760365
C         1.60785098535112    6.48780382240989    3.24391965403673
H         0.95241875649110    6.28231053471260    2.39554442502953
H         1.03035098772863    7.05990186833816    3.98904097044568
H         1.89468123846868    5.53519684386005    3.68672366254461
C         6.41124101135811    6.49632019872177    1.82670589557487
H         6.56886832550625    5.68906543718675    2.53990756819846
H         7.27831068022117    7.15278789616119    1.84361197184223
H         6.33911030040142    6.05334037108741    0.83233344238501
C         3.95599898118039   10.84919553961692    2.31553194119793
H         4.94151572692394   11.24740000823843    2.55053430153049
H         3.22829138044087   11.23134954908824    3.03103090792173
H         3.67148964847032   11.20113939612163    1.32230886076342
C         0.99232538891932    8.58315061097606    7.08240328580344
C         0.22744631310771    8.60228602989603    8.27070747265220
C         0.85205657391432    8.63724115009547    9.50465946224097
H         0.23875809537116    8.65326353127295   10.39668526216744
C         2.23311552864060    8.64733806322530    9.62792249394584
C         2.98647676835657    8.60349309177947    8.46346736070682
H         4.06650668630089    8.59431084515835    8.53243302092448
C         2.40165987064711    8.56725919514639    7.20957918475779
C        -1.27025061299425    8.55274787126490    8.18085193159372
H        -1.61875181927361    7.52281102005044    8.27099185017147
H        -1.58260411684862    8.92867165403121    7.21011065309070
H        -1.72981611048203    9.13662226623049    8.97775964465446
C         2.89538797104850    8.67068164277286   10.97461487506436
H         3.15494472742019    7.65787032570311   11.28627443948309
H         2.23225859141941    9.09454323283470   11.72585421160583
H         3.81274660222982    9.25585093255321   10.94465756926559
C         3.25585104466778    8.50387663046644    5.97786604962132
H         4.26137432335043    8.86899262280449    6.17852701966380
H         2.81338316329599    9.10090533906052    5.17646234447371
H         3.33294298407036    7.47727586069926    5.61751178681020
C        -3.21366286515154   10.38240382015003    4.87901848609049
H        -3.21359079507577    9.45815568811901    4.30139473506506
H        -3.63164829807545   11.20109134885185    4.27382846842946
C        -3.94520344937659   10.29933181981311    6.21574871560799
H        -5.01321103831222   10.47602640356168    6.11047965785275
H        -3.79404681251289    9.31957586659500    6.66653559615958
C        -3.24180193497654   11.38687425413327    7.03629279743921
H        -3.07805825340669   11.07166000634415    8.06383384617936
H        -3.82670091134421   12.30615931457591    7.05044224426264
C        -1.90940822316496   11.60605944214386    6.29273920773281
H        -1.86122151847539   12.62838553486219    5.89122527654939
H        -1.03792680927371   11.42674434096849    6.92445372986326
C        -1.82031456864318   11.34784489828633    1.86922684692388
H        -2.37739617263685   12.07996896046592    2.46860167910121
H        -2.29741685146662   10.36878729192904    1.96015618359916
C        -1.69840783043963   11.81844872538709    0.41847829073582
H        -1.67262516679114   10.96583230750295   -0.25936128998085
H        -2.52036584793708   12.47039636035010    0.13053347224611
C        -0.34455862971443   12.52128166081953    0.42031554626667
H        -0.43733051386412   13.53390907729050    0.81681803150763
H         0.11554056534659   12.56614392988945   -0.56340657367056
C         0.43469301842329   11.63727801343338    1.38564793266916
H         0.80494977919850   10.73858080994800    0.87990943427015
H         1.27592660903415   12.14231398724416    1.86004711542131
C         0.93409020390541   12.96314068661149    4.62916451440346
H         0.00273843821984   13.04199448086875    4.06948342255267
H         1.78244939354476   13.14172752581887    3.95215804541985
C         1.02104349217271   13.92011370134732    5.82922778529305
H         0.03045673133780   14.23907519045729    6.14952413914301
H         1.59878929065493   14.80732070230202    5.57788222657984
C         1.70265539335573   13.07011786924786    6.91349982252370
H         1.03457277273685   12.90702794317750    7.75788370062059
H         2.61736471879874   13.52538682328457    7.28554887567926
C         1.99418966896884   11.74556991921436    6.19680196867765
H         2.99954773512699   11.76399535006363    5.75318657954336
H         1.90318904444630   10.87524936565890    6.84707223488603

