79
CSD_code = SUKKAL | q = -1 | S = 0 | Stoichiometry = C26H38AuN2O4S8(1-) | MND = 4
Au        9.88958375266342   -3.86470466315269   17.43094644797199
S         9.03765342056177   -5.21909762878295   15.74302768668673
S        10.19872877896963   -7.61757440538753   14.36997496836110
S        11.69517315925351   -5.30084778636342   17.72485816377728
S        12.58630053816454   -7.69055382557629   16.14868181007474
O        10.95983062363809   -9.80733602993079   15.75225428820533
O        12.93357520123024   -8.27581328579946   13.15715327678455
N        13.60230565138762   -9.09769467904111   12.21460835300721
C        10.33335143767956   -6.37778974812549   15.61563064108993
C        10.13720731545542   -9.49595423435618   16.86252512814199
H        10.69754729667608   -8.94191326765076   17.62082791126266
H         9.81445516357027  -10.45270073581995   17.26616723615693
H         9.26710684484683   -8.91070501356974   16.55197893140448
C        13.54635462884091  -10.14918048143913   14.35041942396935
H        13.29498039966791  -11.20106508384159   14.46760846982503
H        13.97003372157943   -9.77765188102300   15.28218131726910
C        11.54072384532224  -10.09112416705949   12.86768272443034
H        10.53735494920377   -9.68431525298790   12.75217725482717
H        11.47035477916417  -11.14932632001005   13.11004683367062
C        11.75728975542273   -8.74226018163610   10.73559091819119
H        11.56422680093637   -7.83837657067551   11.30595481745382
H        10.81502029196593   -9.12053512396693   10.34682338233327
H        12.41595457403391   -8.49552690982682    9.90637667694457
C        12.42598954468336   -9.79626195622849   11.62811778683136
C        11.49901029698890   -8.74230834500385   15.07195039165433
C        14.47843165176224   -9.86420095434341   13.14266594766366
C        12.32591996462023   -9.30672846187523   13.93572444235324
C        15.57822161810808   -8.87139589873100   13.54137001868666
H        16.20685566581848   -9.29731399750374   14.31952684883070
H        15.13394665027220   -7.95229002426735   13.91215631595419
H        16.18945038825401   -8.63614891997528   12.67339147830018
C        11.40340276827066   -6.41048286572067   16.41291713071706
C        15.15312220362375  -11.10507338833309   12.57323007936130
H        15.52397390493335  -10.90551263187709   11.57181665674623
H        14.49440531985329  -11.96639143561621   12.54778176221498
H        15.99985148161100  -11.35922119739085   13.20790541386875
C        12.71824279686791  -11.01821069611779   10.76758330013511
H        13.56754504363198  -10.82608587995758   10.11796661377016
H        11.84837002735052  -11.21671247490331   10.14454627615555
H        12.90910981134159  -11.90993822873011   11.35456112393963
S        10.74181159994712   -2.51026042637488   19.11860612153546
S         9.58043408986765   -0.11205088756368   20.49147698678428
S         8.08375437325467   -2.42856886569425   17.13638554252061
S         7.19293253058469   -0.03900408413611   18.71273924515962
O         8.81939374451081    2.07775062096423   19.10920265545666
O         6.84561591508297    0.54626278909568   21.70429899350930
N         6.17690078480231    1.36813861311651   22.64685949228977
C         9.44574518907901   -1.35191853761696   19.24587677120826
C         9.64200561024580    1.76637607547925   17.99892137238882
H         9.08166528770139    1.21233473798766   17.24062004417869
H         9.96473003593895    2.72313765056896   17.59529232633193
H        10.51212150711440    1.18113850990628   18.30944556428327
C         6.23286596072385    2.41965889350883   20.51106089520620
H         6.48426849780374    3.47154037278896   20.39389313524179
H         5.80917401987855    2.04816173492437   19.57929328371594
C         8.23849473218089    2.36154954418039   21.99378383549022
H         9.24185829444639    1.95472755570999   22.10928617869051
H         8.30887771605106    3.41975350021551   21.75142564406292
C         8.02191245453908    1.01266651795017   24.12586725251384
H         8.21497411638104    0.10878972983033   23.55549227256716
H         8.96418040591549    1.39092874330820   24.51465063057091
H         7.36323648293258    0.76592593722606   24.95507154260632
C         7.35322790514163    2.06668599034167   23.23335017606765
C         8.28019742781212    1.01273281281090   19.78950627685875
C         5.30078699471194    2.13467324280215   21.71881546741692
C         7.45328761185453    1.57717397301813   20.92573318324483
C         4.20098701445425    1.14188552360505   21.32009735904025
H         3.57235477510129    1.56782364601668   20.54195048637144
H         4.64525621293794    0.22278462138139   20.94929136481923
H         3.58975960624987    0.90662541761338   22.18807440909210
C         8.37574818849918   -1.31919145061113   18.44853245310307
C         4.62611060300849    3.37554319822959   22.28827437317550
H         4.25526666643509    3.17597064036047   23.28968882818818
H         5.28483466561798    4.23685591991539   22.31372916475297
H         3.77937632231325    3.62970507224509   21.65361072605662
C         7.06099408805137    3.28862944558407   24.09389953742619
H         6.21169009834721    3.09650754286054   24.74351524676427
H         7.93086925888561    3.48711367521038   24.71693982915959
H         6.87013714336293    4.18036663583538   23.50693308313039

