54
CSD_code = SUKMAN | q = 0 | S = 0 | Stoichiometry = C27H20F3N3Pt | MND = 4
Pt        1.22302025049029   11.12888388427916   12.24628178235569
F         3.99700419165057   17.21030319875310   13.30284681265544
F         2.11007395423311   17.86948956672665   12.51316738727167
F         2.30004224849047   17.41315081902651   14.60553855625018
N         1.54552549917401   11.02093132429527   14.23118223684104
N         1.06693297798727   11.87675532072388   10.38379536126512
N        -0.99112856329554    2.65659672885479   10.94675144491801
C         1.45328321714010    9.92913348378507   14.98888422485652
H         1.17160745272723    9.01943087410245   14.47226012914062
C         1.69740655378811    9.93474318103512   16.35019450391003
H         1.60891053823249    9.02230519431401   16.91703857400537
C         2.05474315076887   11.12853109260647   16.96229574786049
H         2.25184574650887   11.16889785157085   18.02267976349615
C         2.15423080990824   12.26737479308445   16.18516870746935
H         2.43023420693590   13.21161074309807   16.62721280674743
C         1.89868555622766   12.20532344361262   14.81874595178799
C         1.98216477263014   13.34687855935169   13.90962570433003
C         2.29418646739959   14.67580109598830   14.16868470113895
H         2.52729639959039   15.03416142966572   15.16072472095484
C         2.29417883932496   15.57570793763080   13.10224196947131
C         2.00485498530270   15.20412833532701   11.78902221847112
H         2.02371984252329   15.95425727825738   11.01200732408783
C         1.69197067048236   13.87433281899448   11.53447366008131
C         1.69050918010520   12.97007212506174   12.59762701813982
C         1.33716442356978   13.21448830689598   10.27940525881353
C         1.26401468671087   13.85605098247210    9.04684483236768
H         1.48020697945097   14.91105670566642    8.98849521482973
C         0.91794813501595   13.14455566090604    7.91335746322080
H         0.85925481705898   13.63544322173478    6.95394374574473
C         0.64775302653175   11.78833122073813    8.03625705534135
H         0.37366003712960   11.19476700107261    7.17938861526777
C         0.73383083536566   11.20056889605981    9.28527295046504
H         0.52808941425587   10.14611538861824    9.42441294573563
C         2.66281157066869   17.00250088855562   13.37808669222911
C         0.71721760187518    9.21643665239523   11.89863881130484
C         0.41207132590455    8.04960071999992   11.72523225044330
C         0.06337877199300    6.69340492227785   11.52801832732514
C         0.17911314463581    6.08946998896083   10.27485739552883
H         0.54253947352411    6.67183612251517    9.43892102651402
C        -0.14819717888874    4.76473726983755   10.08750857720531
H        -0.03320528701260    4.34705280581951    9.10016958372966
C        -0.61944706920400    3.97363323513034   11.14477089745620
C        -0.73452752992062    4.58541951426057   12.40085903680929
H        -1.08564851875520    4.02613253515420   13.25321926057835
C        -0.40144858712183    5.90910505991321   12.58528415227094
H        -0.50216555986056    6.35160851529729   13.56728582502182
C        -0.60431809180653    1.99407427173030    9.72436262829535
H        -1.08154139888984    2.47342220583297    8.86706196179470
H        -0.93894975370648    0.95925532144346    9.75352442272204
H         0.48235526654291    2.00161068294964    9.56997308436331
C        -1.25406100056854    1.81875782006271   12.09141298731499
H        -2.08970313654765    2.22041509355033   12.66767951719771
H        -0.38344217027801    1.72574471837819   12.75389207843684
H        -1.53475317599362    0.82370319162125   11.75211209415841

