87
CSD_code = SUKPIZ | q = 0 | S = 0 | Stoichiometry = C36H48N2Ni | MND = 4
Ni        7.56251496407943    0.97206356195996    4.68883745833200
N         8.91307044232578    2.48793497448422    4.57350639775975
N         9.17990498356167    0.10704603543911    5.59873992472565
C        10.06586938082167    2.20884161589500    5.09213490541689
C        10.24555945005968    0.84066920481623    5.55809334835878
C        11.21790614212034    3.16768476621312    5.14002811319485
H        10.95432674478372    4.09543482216036    4.63748662053611
H        12.09234962082499    2.74128608287164    4.65069032042352
H        11.48965335457431    3.38732092769484    6.17200721784027
C        11.62740682956180    0.33592706341506    5.85345315978524
H        11.59780749963859   -0.72640250327232    6.08355252847121
H        12.06382606941768    0.86909940490055    6.69680843200857
H        12.27583681298911    0.48685032628354    4.99060444359921
C         8.57465412765874    3.71804417506939    4.00758145389325
C         8.37689774355626    4.87620419672969    4.77417879433240
C         7.97648912663177    6.03524172796593    4.12424638829076
H         7.81221946635991    6.93529650042211    4.69776257421847
C         7.78574626979450    6.06213824151669    2.75659418493965
H         7.48787977172024    6.97990433815669    2.27116711112304
C         7.95776594651894    4.90907890742779    2.01072216234689
H         7.78420025268138    4.93716779591206    0.94716697999279
C         8.33817870797490    3.72667045888327    2.61856694569479
C         8.50672403938629    4.86446996312918    6.28150793406453
H         8.87208319712992    3.88340069152648    6.59959424396684
C         7.13462354944844    5.07387613231649    6.92807760547592
H         6.70883514433120    6.03112100900637    6.63671364361169
H         7.22231280906968    5.04988957094358    8.01242125364696
H         6.45055054767152    4.28605471771817    6.62269764434584
C         9.48788768461697    5.93084532925051    6.77455297974954
H        10.45044561926237    5.83944814731536    6.27649686610884
H         9.64292895674568    5.82711795248111    7.84667792412222
H         9.10205097451089    6.92921243885118    6.58475772958341
C         8.52392103365110    2.43750040565257    1.85494956484380
H         8.14945319454846    1.62127518526589    2.51284852639181
C        10.01088852256026    2.19388060178680    1.57671727375953
H        10.14374670342163    1.27408067885214    1.01135174096001
H        10.57807876184105    2.11284889946280    2.49961164622834
H        10.41824032450839    3.01815162094217    0.99326884444917
C         7.74442233386045    2.37956205855100    0.54555689896801
H         8.18898910878358    3.03280312513787   -0.20276852630781
H         6.70901685558226    2.66794753166355    0.69916413167492
H         7.76137194364937    1.36443004838249    0.15345467823253
C         9.16106369434355   -1.23904093690608    5.95711978062570
C         8.73803012931452   -2.16004405138189    4.97886330610608
C         8.69190633681098   -3.50559089191999    5.29925361250442
H         8.39228106227102   -4.22764678629822    4.55653111452674
C         9.02348696367335   -3.94081841202951    6.56999058777521
H         8.99182773401561   -4.99423726876506    6.80578384493949
C         9.36393416421464   -3.02354768126414    7.54551218821485
H         9.57145625011464   -3.37109169164115    8.54608575072180
C         9.44232312695433   -1.66776265326976    7.26412389880604
C         8.35203387408318   -1.64111411855115    3.61311389234479
H         7.87892543125958   -0.62540369717141    3.76094684223735
C         9.59386929399960   -1.46169967019732    2.73637040304968
H        10.29066596187302   -0.75902635490411    3.18648035270430
H         9.31128467698538   -1.08596177445549    1.75541449123932
H        10.10018179588703   -2.41755743152425    2.60838357684057
C         7.32626732423905   -2.51677374720480    2.89802752844865
H         7.77407672141015   -3.44693294832020    2.55396116696473
H         6.93936409177957   -1.99202873005794    2.02644702248291
H         6.49434478528734   -2.75232893289258    3.55794564679149
C         9.69201964049761   -0.67574574085106    8.37831926869838
H         9.85673792896253    0.31499993382990    7.94638534565418
C         8.43534941034922   -0.58839212873046    9.24997015205468
H         7.58552820007756   -0.28176912254896    8.64443918550070
H         8.57572253773059    0.14019040782910   10.04585578962413
H         8.20890594403902   -1.55331599821867    9.69744815302967
C        10.91349157616738   -1.03601321584668    9.22505710039594
H        10.74192731590987   -1.94645322049012    9.79309621349256
H        11.12490535270028   -0.23537254003281    9.93112061638305
H        11.79082510029376   -1.18436580467343    8.59887833172044
C         5.77254900809384    0.43011094883839    5.35832273547613
H         5.38179410325676   -0.44748265686720    4.84998169451610
H         5.79565404114998    0.35039514531736    6.44322052992743
C         5.69235534766754    1.68858207105194    4.77458729860995
H         5.72368054268889    2.55986017276742    5.43355143460952
C         5.17666708694859    1.98655541432917    3.43596404437215
C         4.97918440415444    3.32316302683006    3.07275756391022
H         5.25851212768046    4.10594980001585    3.76417664674868
C         4.43839352679178    3.65739336701461    1.84748019768844
H         4.29474851810937    4.69733815329767    1.59053340614008
C         4.07862765230893    2.66494343252579    0.94937834829646
H         3.64931463029159    2.92409014393410   -0.00759016815514
C         4.28210787201432    1.33580015530132    1.28660463111908
H         4.01209929853394    0.55685205682815    0.58714818140943
C         4.82558025752364    0.99859555086990    2.50992117004214
H         4.97756014529999   -0.04352030675209    2.74915505225015

