26
CSD_code = SUKROF | q = -1 | S = 0 | Stoichiometry = C8H6N2O7S2Tc(1-) | MND = 5
Tc        5.62524635283823    4.21102303561806   13.86201672865529
S         4.34219056451225    2.25918722938420   13.43814431700499
S         4.85108905480524    4.14731388829935   16.09628782533098
N         6.95108509966119    3.11125456559047   12.93833739856711
N         7.28161512707213    4.60316142749208   14.82056083818681
O         4.93346754838735    4.09631302525295   10.34798791595171
O         6.88021072729165    5.27721868369397   10.57103268925719
O         7.48928873680094    1.57571413747167   11.31105443798363
O         8.39915758152040    5.59298998174736   16.57335726746089
O         5.53970633393644    7.53377309303157   15.15798778863788
O         7.16647169966032    7.60727282085914   13.55134549030661
O         5.00327801366981    5.48436176007622   13.02905112546256
C         5.90484669830993    4.68240170040262   10.50140237807019
C         5.33005149953057    1.57549396586972   12.26194119191850
C         6.66485899937781    2.06049308740850   12.09869810122202
C         8.34126013261627    3.52415869750206   12.95436797596182
C         8.50745042749253    4.57976953004016   14.05012058360802
C         7.37063003943662    5.08853935341457   16.10234047956571
C         6.15258189340369    4.91714923464799   16.83284282184941
C         6.34655655257020    7.52949437552882   14.34588953423398
H         4.96093949226371    0.74407592268865   11.68702798404773
H         8.62388904229405    3.91941200634071   11.97148097503677
H         8.95933402315270    2.63721807130821   13.14224735916924
H         9.34319414657930    4.35712940841683   14.72316289623934
H         8.68238904449579    5.56995252889757   13.61117045960716
H         6.06241116826988    5.22882846904240   17.85874343668170

