80
CSD_code = SUKSIA | q = 1 | S = 0 | Stoichiometry = C36H39O2P2Ru(1+) | MND = 9
Ru        9.31343586285283    7.89442300132540   11.95190374163236
P         9.21083148119896    8.30588850428875    9.65682190675987
P        10.90937282739852    6.34299414213228   11.29689913084590
O        10.71619529718236    9.31931255230168   11.75283855094276
O        11.18439571950343    8.31632598770116   12.49659114954309
C         7.27635253622880    7.24597960396340   12.47109033115143
C         8.15273725264448    6.73711974806513   13.49054691408335
C         8.77334685371880    7.85412301718184   14.12972276114149
C         8.24550770404445    9.05518306462929   13.55870402054017
C         7.32959122158437    8.69708381317853   12.53162987479624
C         6.17618522971309    6.48290673892333   11.79208070549494
C         8.21869075304456    5.31850920391126   13.95916194224640
C         9.70159095369225    7.81540857041056   15.29732438564223
C         8.56154953673996   10.43019172163017   14.04640278600573
C         6.34292417210888    9.60558848352069   11.86827491693814
C         9.34155320702147   10.04722098685083    9.15456214506473
C         9.29212850727985   11.08671214848683   10.07377256181094
C         9.36656740183215   12.39900432410420    9.63882950141486
C         9.48157765227254   12.67777452087458    8.28764600219364
C         9.51798263634095   11.64235888154210    7.36546915899286
C         9.44410878105833   10.33076100842995    7.79252004982245
C         7.77820604629835    7.76796000855514    8.66767122676706
C         6.74361074650538    8.67987056362758    8.45664143316390
C         5.60829490895740    8.30409137819175    7.76293215579239
C         5.48669290666635    7.01258647935100    7.27521990758024
C         6.50828530093248    6.10082416613260    7.48333067223610
C         7.64565685195702    6.47150152364949    8.17916637027227
C        10.38111706339047    4.77076757212174   10.53071204329737
C         9.03046047794191    4.48039809797012   10.40240238980877
C         8.62295266120551    3.28462268421794    9.83499219915074
C         9.57013064759169    2.37610706755334    9.39318241356611
C        10.92189153153091    2.66271675102154    9.51799514272866
C        11.33030639211376    3.85374892713174   10.08845982853203
C        12.16282568773214    5.76425811558052   12.46320181905289
C        11.87761243811541    4.63022852620375   13.22153603807112
C        12.79654594522700    4.16590248979329   14.14370104509078
C        14.00381308446486    4.82642312972622   14.31075536331619
C        14.29120737231678    5.95140532895485   13.55418283326361
C        13.37395112695843    6.42760744149140   12.63477969572823
C        10.67839186244456    7.50463455974474    8.84301970029489
C        11.74767630805565    7.17379422643012    9.88247953665851
H         6.11586324561364    6.71596585429141   10.72892521678025
H         5.22423783285593    6.75728487882817   12.24954463763537
H         6.30760914512428    5.41035613903887   11.90976083013240
H         8.14855334162265    4.61415050424876   13.13274288141134
H         7.38245243609385    5.13379776176148   14.63618915734100
H         9.14139450924607    5.12690771285231   14.50151822105316
H        10.18949924761795    6.84700736320242   15.38766805408504
H         9.14176301238342    8.01097324323633   16.21392780248583
H        10.47311069838914    8.57872024053190   15.20088999830885
H         9.62212690792494   10.65518739233489   13.91898317276907
H         8.33458855276485   10.50078833387028   15.11048548340137
H         7.98040490157506   11.17973784473658   13.51496289249816
H         5.91798096643261    9.13658435267649   10.98417485528250
H         6.79114548551608   10.55400621082332   11.57945844260695
H         5.53105414560966    9.81345019316778   12.56826803792594
H         9.22417863334845   10.86283594016825   11.12799926111669
H         9.33704011288566   13.20513614993313   10.35623831587461
H         9.54145967876800   13.70088971142217    7.94998502789420
H         9.60177415787132   11.85942451851657    6.31147457960774
H         9.45082905574984    9.52448829710565    7.07091762795658
H         6.84256240041769    9.69331740379952    8.81905371114705
H         4.81871770822624    9.02164942041376    7.59932444585167
H         4.60142872807674    6.71996464997092    6.73253533911686
H         6.42252800570172    5.09497579213346    7.10121077054216
H         8.42609033339955    5.74249586109419    8.33577613833615
H         8.30983824848358    5.21270030341619   10.74490639177646
H         7.57036173237625    3.06350211570559    9.73776135837440
H         9.25751546234295    1.44173542948592    8.95328264127569
H        11.65774427188247    1.95266929442794    9.17274761331131
H        12.38334226538425    4.07293205704883   10.20125788123528
H        10.94044538230423    4.11055912462918   13.07296212380471
H        12.57344795673101    3.28763966336333   14.73076702431043
H        14.72111500683026    4.46278793395736   15.03037285741106
H        15.23350400677603    6.46186499281066   13.68312300014936
H        13.59238437000976    7.31342076313161   12.05810409501986
H        11.07224786425328    8.18713688748971    8.08445930600509
H        10.34242561146026    6.58851049739160    8.34907428796849
H        12.51631861282157    6.51334552585749    9.46974453820914
H        12.21586101728681    8.09398058022670   10.24726762853991

