83
CSD_code = SUKTAV | q = 0 | S = 0 | Stoichiometry = C41H38AuClN2 | MND = 2
Au        5.08949009867294    3.71466182863441   -0.63863252123033
Cl        3.20603691741421    4.67291026964549    0.18080027768192
N         6.90770306932747    2.90604600662739   -2.85665752724163
N         8.02955491207865    3.52282892945627   -1.09463124058101
C         6.81945653192016    3.08625858610789   -1.51758405279047
C         8.14386596834197    3.32183876265782   -3.31131484687411
C         8.86713458137698    3.72145117994193   -2.17488481057499
C        10.14315413933087    4.25689069953862   -2.29263661074295
H        10.69651592909975    4.60227817055392   -1.43720045333611
C        10.67696153221053    4.36192517640263   -3.56039433774252
H        11.66473806018621    4.77896405162159   -3.68201110427874
C         9.96115436819914    3.96289523826536   -4.68646362969733
H        10.40563722235123    4.07607162264324   -5.66319962078458
C         8.68590461571080    3.44679940465932   -4.58376664975250
H         8.13367338886295    3.17625420772417   -5.46636614118424
C         8.46869156691987    3.69155108896440    0.28615569196715
C         8.56642326268678    5.14981831834317    0.68850640993229
C         7.58746969323678    6.11680778257122    0.65888580665329
H         6.59645589259727    5.89373205530059    0.28720020261614
C         7.89975242289731    7.38801077221112    1.12497714718654
H         7.14423938377679    8.15859563009622    1.10882110468089
C         9.16399410998358    7.67309643625431    1.61598965850088
H         9.38215657389742    8.66633285399672    1.97974504492017
C        10.15277076042258    6.70132417698928    1.64710935507604
H        11.13593263083925    6.92829214031488    2.03130584806947
C         9.84994733286454    5.43528882682559    1.17709089808995
C        10.67317074218483    4.23959252050936    1.05243345101797
C        12.00217432837984    4.01111525686728    1.36358420074656
H        12.60444943228479    4.78426864419041    1.81602040547914
C        12.54616938806370    2.76739319878537    1.07838206459791
H        13.58212458274545    2.57257358814036    1.31312250713476
C        11.78100533281730    1.77226594337810    0.49199221524708
H        12.22736036330943    0.81409317869084    0.27201318951146
C        10.44316711186090    1.99189662314525    0.18685957288116
H         9.84863222392845    1.21241919839308   -0.26734621965442
C         9.89941045096241    3.22427375044479    0.47012067377628
C         7.57657568724189    2.91355096398177    1.27224407859627
H         6.57633034542419    3.35136286436203    1.26668873215283
H         7.49169068091489    1.88233038117055    0.92191625164447
C         8.10093129607540    2.93066394765454    2.70627923251629
H         9.06950935176449    2.42841459288442    2.76154272475352
H         8.24199678330479    3.96428234858350    3.02981116740938
C         7.12080698293863    2.23933372352322    3.65149652174995
H         6.97088645600339    1.20746327865527    3.32559853706045
H         6.15491346355140    2.74586763378179    3.60239711155191
C         7.62718166910225    2.24915414641788    5.08805521898374
H         6.91891767208802    1.75193514985908    5.74615949508129
H         7.76121653746963    3.27065680322803    5.43686689913982
H         8.58350766839129    1.73499292322776    5.16000995881994
C         5.91361909902786    2.29485906961480   -3.73224330146677
C         5.23491825881133    3.31064996028507   -4.62942255147726
C         4.53342014089458    4.43923484379165   -4.27081566747774
H         4.43153874529580    4.72468593763674   -3.23264678824619
C         3.95093761853711    5.20159486785894   -5.27590403629506
H         3.39702331577453    6.09006983998121   -5.01378205615701
C         4.06602134740433    4.82974367963650   -6.60612624286454
H         3.59917585060432    5.43416605410924   -7.36982957887288
C         4.77070525123735    3.69240045814555   -6.97052314646550
H         4.85586753202834    3.40569607327389   -8.00798108283978
C         5.35903056152986    2.93255501313955   -5.97444198225316
C         6.17259897471576    1.72568546291951   -6.04628571419421
C         6.60287065588143    0.97945983996608   -7.12934042961452
H         6.30358023625712    1.23926145321317   -8.13343624820765
C         7.43083560965941   -0.10922807382669   -6.89819860968095
H         7.77670800780908   -0.70176749812892   -7.73218697623705
C         7.82467445299841   -0.44493452185448   -5.61308338979649
H         8.47582458473710   -1.29197126091699   -5.45729700535938
C         7.38745127211366    0.29407433728667   -4.52037849126805
H         7.69353298413156    0.02703573981458   -3.51915089933099
C         6.56350401897372    1.37325491053149   -4.74552673107270
C         4.86506910044334    1.49004718334859   -2.94264073965757
H         5.38556805153349    0.80492933129182   -2.26976871784182
H         4.28525712435083    2.18391832285791   -2.33395105969378
C         3.90495300159379    0.70628367436322   -3.83511194979470
H         3.48370592422851    1.37110756781190   -4.59216700390751
H         4.44853248672809   -0.08741925603706   -4.35333757297789
C         2.76200490932262    0.08856241996374   -3.02695367891362
H         2.24144500302821   -0.63055707800705   -3.66363133437076
H         3.17453866062232   -0.46084424438102   -2.17791293962367
C         1.75475407144951    1.11884653297187   -2.52883534221505
H         0.92030214893522    0.62051636305115   -2.04080663320594
H         1.36587242898780    1.70149185623426   -3.36159321800052
H         2.19861505436689    1.80376626383287   -1.81098076937715

