71
CSD_code = SUKVIF | q = 0 | S = 0 | Stoichiometry = C37H30AuClN2 | MND = 2
Au        6.44075445855427    1.39486216582571   13.54272712101975
Cl        8.70862350207586    1.38884277707206   13.55075813079968
N         3.79068599523561    1.11649657481850   12.21525782187144
N         3.79278486524848    2.75335258384774   13.65307798642952
C         4.42739992452609    1.60842549585694   13.30489299772664
C         2.80983107413953    1.99647620611958   11.80078128470047
C         1.96807720207541    2.01769855687057   10.69627055499703
H         1.97932337929291    1.23643145052299    9.95695844925392
C         1.12445495241991    3.10023809817737   10.55625608062274
H         0.46213707781154    3.14390996800217    9.70550410495032
C         1.12578010466793    4.14646628258947   11.47524228766961
H         0.46437942990911    4.98537204987072   11.32314300660017
C         1.97074504863442    4.14602982140236   12.56577420872162
H         1.98383665217508    4.97989322730865   13.24517607403169
C         2.81118607393726    3.05231270116142   12.72822205663912
C         4.02024118825286    3.55434149379588   14.85109324579598
C         2.71702542870277    4.07760842226671   15.42354476591982
C         1.60472286724627    3.36778625900422   15.81567514218215
H         1.55562866001556    2.29577269541918   15.69014364546283
C         0.53769865799103    4.06280748846653   16.37232537799029
H        -0.34585683823669    3.52451828731527   16.68093649196669
C         0.59741341757152    5.43685828565207   16.53970686074723
H        -0.24045314428834    5.95562777984342   16.98141984879349
C         1.71608741644375    6.15569430142698   16.14481294373437
H         1.75568644269254    7.22661785354712   16.27417609389243
C         2.77779394543972    5.47070621644698   15.58023900868390
C         4.04100761929683    5.94407482560168   15.03027032103977
C         4.55465586042699    7.22356939059358   14.90871053436531
H         4.00668480335545    8.07683346440821   15.27939260872208
C         5.79070567398330    7.38581926296788   14.30174375078866
H         6.20788896613909    8.37671603180508   14.19920179647119
C         6.49870024760647    6.29393088330430   13.82495989995488
H         7.45913041790064    6.44079969232280   13.35506254880105
C         5.99162927345848    5.00652252160970   13.95111987407723
H         6.55300804487371    4.15591843798601   13.58863682179114
C         4.76499704058591    4.84140820372517   14.55344448103887
C         4.73908295575395    2.75043368811563   15.95341210200672
H         4.19873678856079    1.81311036186898   16.10241459806384
H         5.74720757160553    2.50671180809720   15.61349153840110
C         4.84083426943725    3.50693272124545   17.27257164678344
H         5.40788258248293    2.91127167583393   17.98326051765754
H         3.85923755459242    3.70623413466613   17.69645373057857
H         5.35692787404281    4.45388021095736   17.13278069233940
C         4.01642624786164   -0.17469587793336   11.57463089754304
C         2.71246071531375   -0.80867557680948   11.13002550387367
C         1.60088147154117   -1.10678499788957   11.88526898535732
H         1.55271183606073   -0.84487153793516   12.93238867724990
C         0.53343700842602   -1.74817489366947   11.26832785354961
H        -0.34935630216575   -1.98585739305821   11.84265671862780
C         0.59198159111230   -2.09030964784718    9.92700354321479
H        -0.24592003337952   -2.59571004464730    9.47011573427611
C         1.70986645783166   -1.79056396790743    9.16245559251348
H         1.74865204798337   -2.05629087098452    8.11695614694219
C         2.77198977833142   -1.14258358912330    9.76843186112628
C         4.03485551632145   -0.65815363944981    9.22740673474190
C         4.54694426096798   -0.70088070868513    7.94223546871647
H         3.99757777572162   -1.17668002959887    7.14377342042215
C         5.78316389141291   -0.12048192831618    7.70257691762788
H         6.19906788131001   -0.14502232901653    6.70615752922233
C         6.49283665034058    0.49084381638253    8.72406967706448
H         7.45344424463692    0.93734839302131    8.51751665192712
C         5.98716626695702    0.53031110766013   10.01760041296959
H         6.54992189190315    0.99765206051614   10.81444542388067
C         4.76031061550364   -0.04501480601950   10.25946971751666
C         4.73497702921511   -1.16525114639447   12.51303264660135
H         5.74380395178951   -0.79823636301225   12.70996115830677
H         4.19549818941043   -1.19168608668478   13.46225087771252
C         4.83416058746951   -2.57097299900175   11.93250313262200
H         5.40077204182922   -3.19999761060519   12.61420161946607
H         5.34947772787867   -2.55496049522814   10.97501483919241
H         3.85178533177693   -3.01551319550099   11.79017920365111

