55
CSD_code = SUKWOK | q = 1 | S = 0 | Stoichiometry = C16H32CoO4P2(1+) | MND = 6
Co        8.41285208276564    5.44890494453371    5.74278960521010
P         7.85919490169123    7.14722570237718    4.32369650377133
O         9.26884321468440    6.63620727852258    6.93222248200677
O         9.99173529507025    5.21181705962448    4.73865869711897
C        10.89124230335858    7.98409919098153    7.99326305305633
C        10.47502838164747    7.02262983947581    6.91020768095032
C        11.42804632256442    6.62803346160755    5.97067657685712
C        11.12519939516308    5.74181883816742    4.93662663021188
C        12.21700289703382    5.37174161647538    3.96620183886824
C         6.11296194098309    7.69194493967252    4.32604316021547
C         8.74604576914731    8.73191088164306    4.54305884787183
C         8.15908505330019    6.75518346544541    2.56666405553130
H        10.04295053261012    8.21074973670578    8.63292882779695
H        11.26816852622968    8.90301030139608    7.55024541639818
H        11.69030864998056    7.54968108909830    8.59003761863404
H        12.42815364285800    7.01974674503463    6.04604078088538
H        12.58253117702258    6.26225027182870    3.45945039144475
H        13.05307867828938    4.92505167295928    4.49937291901416
H        11.83632131109395    4.66700088468906    3.23229102268626
H         5.98052967911850    8.49740011870016    3.60489969917649
H         5.46374887195790    6.85908172619808    4.06309903319218
H         5.84797841717936    8.04614065525708    5.32020574740449
H         8.39346650830718    9.45289972114202    3.80674231845215
H         8.55919132594610    9.11334384811458    5.54485225520784
H         9.81608589466785    8.57855135220610    4.41734922390214
H         9.21313365441408    6.52971639025778    2.42204613886400
H         7.57883905998183    5.87862582301497    2.28790250195539
H         7.87319465247003    7.60162009408339    1.94381840161368
P         8.96678290625949    3.75078146063472    7.16201296224279
C        10.71296288777125    3.20593199954460    7.15955244300203
H        10.84525146106123    2.40040608879449    7.88063527840851
H        11.36214473482768    4.03875704507867    7.42266291452454
H        10.97798005503138    2.85181477120661    6.16536496127520
C         8.07974501037488    2.16616536826106    6.94270052955301
H         8.43238838469719    1.44512609561053    7.67893607231446
H         8.26646588207299    1.78471756608203    5.94089006421404
H         7.00970970041106    2.31949731427770    7.06854700459160
C         8.66662571278478    4.14283476674804    8.91899138349607
H         7.61254852764232    4.36825301448916    9.06360800654654
H         9.24685240780188    5.01942256620238    9.19767303080789
H         8.95259276466733    3.29644477963687    9.54185643079362
O         7.55682820376613    4.26174339375045    4.55327975065001
C         6.35066054726147    3.87525728252243    4.57531253808145
C         5.93450822195125    2.91386816508140    3.49221084015640
H         6.78276496181154    2.68744142190404    2.85248820885205
H         5.55777363739420    1.99488337604821    3.93513227241721
H         5.13537334676354    3.34823444112476    2.89557209981278
C         5.39769296668045    4.26981876409868    5.51492794877810
C         5.70043420546879    5.15623782012650    6.54883625056437
O         6.83389833159318    5.68628495330965    6.74677606689634
C         4.60866325925819    5.52636826117218    7.51925865813810
H         4.24233647492598    4.63588465740410    8.02542523588686
H         3.77308097647225    5.97396609646066    6.98614002291925
H         4.98960819160097    6.23045986866038    8.25359577704436
H         4.39760810012098    3.87801101255599    5.43962181971036

