45
CSD_code = SUKWIG | q = 0 | S = 0 | Stoichiometry = C20H20ClN3Ni | MND = 4
Ni        3.42933690881547    8.91440154235742    8.78351643252958
Cl        4.19580108021031    7.16086713330803    7.98187659902255
N         2.78854766218030   10.44309069406464    9.55549686517086
N         1.78098925907001    8.04384916329486    9.53035513232772
N         4.90669474951940   10.04528387083625    8.25951283177669
C         1.53610538004612   10.39174041238399   10.06925921255197
C         0.98470887991743    9.09938096404714   10.16597756113080
C        -0.22736750992458    8.88154473755976   10.78330371439683
H        -0.64295786564363    7.88739997440790   10.86461651320244
C        -0.94234533880338    9.95932679801594   11.28713131152580
H        -1.89639019636682    9.79576168010991   11.76367982954005
C        -0.43696624685134   11.24290399456054   11.15321172482155
H        -1.00743814703440   12.08150699931746   11.52644154346148
C         0.78121947126003   11.47362289061905   10.54948480404288
H         1.15323309114295   12.48166250099643   10.45314767120429
C         3.35704865561717   11.68194666374071    9.08568830457328
H         3.42930102636859   12.43105751961596    9.88889672924466
C         4.72144918960913   11.34526895921324    8.55127122048978
C         5.70032229017029   12.29898830190451    8.31344318782153
H         5.50617428570734   13.33142098859483    8.55870587116146
C         6.90780317388341   11.90722625585801    7.76551946162750
H         7.68666007980609   12.63022577844178    7.57583402714914
C         7.09289254874400   10.56574707284918    7.46603708075092
H         8.01569019769619   10.21297640889484    7.03463361531467
C         6.07195974566412    9.67152950594982    7.72707898132992
H         6.18235874171810    8.61873445223931    7.49990630616133
C         2.56944500886622   12.25265368550771    7.91204401474676
C         2.17157822279544   11.39146691168314    6.89803332557273
H         2.43302092971866   10.33249375145304    6.96455890658704
C         1.44856478157199   11.86495446961892    5.82086585162554
H         1.14192203142156   11.18864442460850    5.03676938325739
C         1.12023296141018   13.20953100996283    5.74868886873568
H         0.55308738363441   13.58270129589405    4.90901522938624
C         1.51849761201250   14.07282236628029    6.75424544677916
H         1.26186013301513   15.12064813509483    6.70083086033639
C         2.24434959482829   13.59741933175748    7.83342035088563
H         2.55133471038294   14.27488355656899    8.61827589389317
C         2.13528659101321    7.01928140916025   10.52534377169311
H         2.69167679475375    7.48660944245633   11.33888345125435
H         2.75627671489210    6.25380343164542   10.05993816819278
H         1.23716178838102    6.54670971969945   10.93533229338016
C         0.99085462991618    7.42865169478090    8.45146059295158
H         0.10068261718781    6.93601559460037    8.85573036727670
H         1.59612037940150    6.68990217713170    7.92588527954868
H         0.67361600227434    8.20034232891567    7.74845141156747

