105
CSD_code = SULBEH | q = 1 | S = 0 | Stoichiometry = C42H60AuN2(1+) | MND = 2
Au        0.90296490183503    1.81135231236114   12.37127828927229
N         2.98657158855909    4.29642891524339   15.43396384055216
N        -0.63840341821412    1.32488417978286    9.99531392149832
C         1.35631265229541    2.98315374955544   13.99660068619607
C         2.58428135884656    3.33766342113264   14.31790956920462
C         3.85256364295915    2.90464389490684   13.63338511650853
C         4.95168724755216    3.11145771830377   14.66756809785856
C         4.47499510031280    4.34504727947628   15.42362939008605
C         0.12455389485586    3.44169845690956   14.65525327441807
C        -0.58615002735264    4.52949174020703   14.14682852477250
C        -1.78690261663716    4.91380235795176   14.71143558748395
C        -2.31092405658284    4.21612292759892   15.78726170409556
C        -1.62967237999421    3.11703855331650   16.28290670057743
C        -0.42777952361209    2.72916530099699   15.72085254830631
C         2.48676674099827    3.82341666195179   16.75428396836051
C         2.94309581411019    2.42286900660203   17.12754293485557
C         2.41426555274589    5.65119197818280   15.19497258088383
C         2.65084758046495    6.19572709620697   13.79482673745325
C         0.31602362341935    0.79276088161926   10.69001172848407
C        -1.04134213287915    0.60107975786906    8.76552394789370
C        -0.32772943974657   -0.73842125431741    8.97140130024232
C         0.77142122808441   -0.48894536769741   10.03444756514186
C         2.18135051846600   -0.31014934336384    9.41376170227655
C         2.60205619835927   -1.57170431279131    8.65628791436960
C         2.63377345304611   -2.75965866007734    9.61567653788246
C         3.67658299202905   -2.49893378958506   10.70032025050682
C         3.28824103900876   -1.23307183141152   11.46240617623268
C         3.22934560938238   -0.05002992065699   10.49776836147580
C         1.91964595534189   -1.43812859438087   12.10503604510361
C         0.86841653571108   -1.67357197906263   11.02152125605716
C         1.25680211626955   -2.94114650694542   10.25431180131548
C        -1.28820857546426    2.53033573304721   10.41454118560866
C        -0.79095663720670    3.77828731786897   10.01526542398665
C        -1.49079602946333    4.91805241042525   10.39139030795567
C        -2.62987793491315    4.83655728605559   11.16576581545925
C        -3.05751324753948    3.60719953628428   11.62387637458497
C        -2.39891044225030    2.43824996112869   11.26687350582903
C        -0.54082854250440    1.32729045099619    7.51617200069268
C        -2.55500358495180    0.45645593568533    8.64861302669435
C         0.51593502647199    3.95057991352848    9.27314767972437
C         0.35328677822708    4.77126856896357    7.99095114859120
C         1.54026178423467    4.62831156639885   10.18988551173514
C        -2.86613735053932    1.13433298570618   11.87362302399112
C        -2.56297285619112    1.12727851778863   13.37475241968821
C        -4.36343942958231    0.90079306442099   11.65003973555572
H         4.03625118209260    3.52684619287748   12.75247732867035
H         3.78645001763762    1.87104875016307   13.30108776370663
H         5.02525292633411    2.24521059368353   15.32257179939816
H         5.92672988415634    3.27792995517491   14.21475775708673
H         4.79290355699948    5.24106678822736   14.89238818673736
H         4.85590686655393    4.39965624467976   16.44289116317804
H        -0.19909581110821    5.06282139524093   13.28971863393209
H        -2.31739768582518    5.76222680772861   14.30587060128712
H        -3.24856543210597    4.51814931988927   16.22750875325774
H        -2.03734727831886    2.55385540578740   17.10902458916180
H         0.08490629328270    1.85409660829415   16.09620690826847
H         2.81436611553888    4.54025450707034   17.51209187809164
H         1.39624937594626    3.83926682798208   16.71351455087367
H         2.71656771846766    1.71973916871099   16.32987984823200
H         2.40197369207191    2.11311197976145   18.01775866444345
H         4.00451377460243    2.38021655695892   17.35493210277264
H         1.33707875280921    5.58367255178407   15.36015111424219
H         2.83965626977348    6.32821195689027   15.94055111184831
H         3.70043636974937    6.38209808803015   13.58329705634245
H         2.12370469573382    7.14178241171004   13.70587407777449
H         2.25833809708281    5.51398682154079   13.04554796119950
H         0.06780159873892   -1.10985731537466    8.03194489168327
H        -1.03650115960241   -1.47421900478710    9.35472345888791
H         2.16505111706110    0.54038851121860    8.72243515586876
H         1.93324568777537   -1.78283220696128    7.82151345276006
H         3.59710619262329   -1.41141356172110    8.23575375624642
H         2.89878891469475   -3.66625101150919    9.06274819359887
H         4.66308944795708   -2.37842958592958   10.24840127470323
H         3.72470605973124   -3.34659210282217   11.38630347635634
H         4.03211921353795   -1.03064616838615   12.24106906359663
H         4.20332629099423    0.08550419257235   10.02221730848082
H         2.99195015250028    0.86652153882061   11.04287935040100
H         1.65453286269728   -0.56865662895413   12.71139907972910
H         1.94783611534794   -2.30784976775392   12.76461604481963
H        -0.10954421228983   -1.81659511979773   11.49722625712277
H         1.28265068680891   -3.78291617590833   10.94898119649351
H         0.51947950781821   -3.17420551857682    9.48518489316577
H        -1.13288326849284    5.88563001776279   10.07685697349885
H        -3.16731298438389    5.73282824828983   11.43473052769337
H        -3.91553602496783    3.55350923754005   12.27384880940502
H        -0.81128864972541    0.74790230828207    6.63692093656021
H         0.53914420223344    1.44593201936122    7.51992703440350
H        -1.00828753473205    2.30399389601935    7.43331883027075
H        -2.79290210421548   -0.00819083590585    7.69493260960127
H        -3.03705133180648    1.43108635718625    8.68274365500393
H        -2.96334764995748   -0.16960530406480    9.43538384515200
H         0.91593449492833    2.96774575293111    9.01654195770420
H        -0.45981565385576    4.39470507152677    7.37593085963464
H         1.27012427912225    4.73212366821999    7.40773031177635
H         0.14530837651470    5.81281181753592    8.21970448178332
H         1.20600618998833    5.62203385366201   10.47756017874943
H         2.49336456477595    4.72142088837796    9.67441315906265
H         1.68651615500093    4.03127840720504   11.09125534179305
H        -2.30872323657520    0.30560612230393   11.42894865923682
H        -3.05130016359297    1.95860517700954   13.87600778230778
H        -1.49098085298163    1.21022392335056   13.54779170511584
H        -2.91498027138987    0.19928995543396   13.81888049405216
H        -4.95540427575693    1.57216278221626   12.26547252560406
H        -4.62351470326646   -0.11866188554540   11.92544341287643
H        -4.64138812255590    1.05994163679006   10.61137198462930

