100
CSD_code = SULBAD | q = 1 | S = 0 | Stoichiometry = C43H54AuN2(1+) | MND = 2
Au        6.08204480329983    3.29888705429549    2.66580102162179
N         5.45792085280855    4.76267622185952   -1.37601084929187
N         5.88238711366781    2.88097626338136    5.50506468837163
C         5.56666580198482    4.16464485739800    0.92317374197110
C         4.51945220748783    5.16699767154361    0.72155878434737
C         3.65422530201765    5.76587647726127    1.62247174140509
C         2.74629079397884    6.69745521332571    1.14419741364267
C         2.69654108233540    7.02961375672634   -0.20164860494282
C         3.55981273052891    6.43763983899756   -1.11679730082405
C         4.45507242796804    5.51632886588139   -0.62905176433609
C         6.10340175898800    3.93878129856147   -0.27690476695470
C         7.18809944944256    3.02385289515138   -0.65570501038833
C         8.51002735882417    3.46034026660387   -0.66963839914490
C         9.52971428230602    2.58641009448565   -1.00120930421105
C         9.24199683928604    1.26874888379631   -1.31696577635570
C         7.93122798947763    0.82304943971102   -1.28858926806347
C         6.90856232697971    1.69427784994521   -0.95991730340898
C         6.53409100753293    2.46324752618562    4.46658324421139
C         6.21498759193781    2.23777444752714    6.79851560875018
C         7.08301652142302    1.06694063263728    6.32844388711571
C         7.52113416231857    1.39770413063800    4.87977507894240
C         8.96484927281828    1.96115337764846    4.80151627904159
C         9.35600139443254    2.27919908890828    3.35645070924669
C         9.30389747794961    1.01031979850503    2.50845090338362
C         7.89363967184033    0.43048656743133    2.54536121327076
C         7.49095522626135    0.13575036698746    3.98983897441123
C         8.47402407033581   -0.89843635593386    4.54845553131240
C         9.89642551633095   -0.33960521441004    4.50610506035216
C        10.28364127483203   -0.02162152117003    3.06358008254187
C         9.97159746690978    0.93984258090578    5.33677062653620
C         4.89850870757680    3.91780899962855    5.42419522023016
C         3.55611677426347    3.57569218466523    5.20270396959457
C         2.60185083898527    4.58475000562191    5.23352065557345
C         2.95895920758048    5.90027878451220    5.45249352055162
C         4.29317839183678    6.23348470998789    5.57021506314887
C         5.28526784087626    5.26079811554604    5.54305440045734
C         4.83151814812297    3.88705429729560   -2.37370212238716
C         6.43704636030494    5.65740106110042   -2.00396214763854
C         4.96755599021788    1.77726372251219    7.54568759679509
C         6.98174076944764    3.19890160662576    7.70627572211730
C         3.11233641517428    2.17828854800154    4.83193600394669
C         2.67065958815805    2.16338249094737    3.36394893579899
C         1.96807637903748    1.67443229651379    5.71622954289266
C         6.72889190397182    5.71104301912325    5.53585944570268
C         7.01703226655230    6.45467854929801    4.22642306677544
C         7.07108659719269    6.61633575212954    6.72189375247425
H         3.69396843974610    5.50758706754357    2.66932769920982
H         2.06412643577160    7.17452617982818    1.83063782296715
H         1.98038157398368    7.75715453602562   -0.54892997451315
H         3.51462612432177    6.70258525495882   -2.16236709822084
H         8.74046602454341    4.48124156091211   -0.40142381150605
H        10.55154398584580    2.93421279417375   -1.00810879173197
H        10.03903920227116    0.58857311823164   -1.57471017671644
H         7.70401843449719   -0.20595411828460   -1.52142005519962
H         5.88809600400182    1.34125852528689   -0.92228805181370
H         6.48832527845719    0.15212552890073    6.32212226299218
H         7.92082462596186    0.91874778241435    7.00154234168117
H         9.02609273737023    2.87818060616302    5.39942097169677
H         8.69044361723191    3.03390651935346    2.93198602136741
H        10.36982177823388    2.68575037430438    3.34744840239194
H         9.56834464580494    1.25531878359310    1.47458671758044
H         7.86234837269221   -0.49882679084579    1.97253108059954
H         7.19276323195853    1.12788211933804    2.08198184477042
H         6.47541515105153   -0.27925719146121    4.00145397270283
H         8.41859009727934   -1.80466668507580    3.94210554384683
H         8.21441637712153   -1.17322932166172    5.57150041757574
H        10.58887664450987   -1.08093712858523    4.91748066058682
H        11.30249162967782    0.36916553500155    3.02807481719970
H        10.25228466919399   -0.92882729493664    2.45718155537005
H         9.79727411178294    0.71353461710751    6.38905236300138
H        10.97405892887927    1.36705326518544    5.26441525435180
H         1.56407715905940    4.33658074577107    5.07964979773110
H         2.20203688487141    6.66828157622688    5.49611461027691
H         4.57152942167898    7.26931682120721    5.67904568862338
H         4.09652018363439    3.25365711351388   -1.87888207917395
H         5.59054548436718    3.26052902314396   -2.84085307464558
H         4.33233923614939    4.48236897618909   -3.13703826635248
H         5.95183164496842    6.27712699789964   -2.75686434930526
H         7.22529206787869    5.06916566617312   -2.47227126331512
H         6.87160678659089    6.30061405852099   -1.23992593794756
H         4.30253906223631    2.61647400323027    7.73722019339537
H         5.26527170654161    1.35356051278957    8.50168884089620
H         4.42865347675511    1.01293611439164    6.99446153147281
H         7.90493657825037    3.54165026374850    7.24776886202748
H         7.23482856956069    2.68866516343921    8.63227187533770
H         6.36325550769737    4.05777127494603    7.95180736634164
H         3.95973194342077    1.49327558080522    4.92193960767961
H         1.83625699559370    2.84105751242803    3.20254798584055
H         2.35954839895139    1.16017088682972    3.08278408655895
H         3.49222215134377    2.46753515477253    2.71550900177399
H         2.18641708292256    1.81510017818080    6.77133026736707
H         1.80221509541209    0.61477649392131    5.53644921346723
H         1.04358076078377    2.19817531443727    5.48989706267399
H         7.38037294246226    4.83467073417193    5.56028166417216
H         6.81123062011749    5.81257911681930    3.37014134533716
H         8.06251419326471    6.75177134601167    4.19404756243994
H         6.40225657654705    7.34696212770591    4.14231719451640
H         6.57667587207241    7.57946884546312    6.63134039922914
H         8.14362966202875    6.79256927601888    6.75222342297529
H         6.77161585705091    6.17117696546885    7.66684673182564

