95
CSD_code = SULBOR | q = 0 | S = 0 | Stoichiometry = C42H44N2NiO6 | MND = 4
Ni        6.04106224707479   -0.00006136248548   -4.86071904648754
O         5.30692646303078   -1.08831637656664   -3.53548232092147
O         0.02231275388455  -10.24246902901368   -3.19637441053247
O         1.31857400451891  -10.71613409928953   -4.94699514824496
H         0.82935478621170  -11.55211301979962   -4.90579830791054
N         5.25402844731727   -1.01568023500505   -6.20480524766561
C         4.73275381443314   -2.23322564977047   -3.60718656615524
C         4.37601629950224   -2.95698895855193   -2.41520571977570
C         3.77523672622753   -4.18174402292567   -2.53844941516908
H         3.53071519177630   -4.74395339452599   -1.65263935607632
C         3.47340268678928   -4.78543870961056   -3.77648516537396
C         3.78875111733701   -4.09806063586434   -4.92242352134101
H         3.54035347436687   -4.50829975374648   -5.89128485936801
C         4.40310528424901   -2.83695234636414   -4.86201871107341
C         4.65164864783207   -2.33503800813820   -1.05444525048699
C         4.24897618662838   -3.24453455356163    0.11105086735287
H         3.18142729344520   -3.45351207615057    0.10385533749057
H         4.48228944862316   -2.74188680122617    1.04743752067451
H         4.79919461201364   -4.18279742433457    0.08987137898162
C         6.14892116088933   -2.03448065561861   -0.92378017077042
H         6.72623580805943   -2.95326615416478   -1.00987944264333
H         6.35498536950252   -1.58482743318898    0.04445945047260
H         6.46447077398289   -1.34681180565578   -1.70041638066613
C         3.83789876663539   -1.03844851268220   -0.95017311117116
H         2.77377901082922   -1.25494942558776   -1.02767230781215
H         4.11311976485415   -0.35452300463986   -1.74601153119599
H         4.02430759708228   -0.55396087012405    0.00512049711403
C         2.82414797806878   -6.09848859301709   -3.82514301448297
C         1.83629656972191   -6.44396399033710   -2.89987855517599
H         1.53723691129657   -5.72888887947300   -2.14820517864460
C         1.21869065832793   -7.67399385679475   -2.95501386162670
H         0.45010549364632   -7.94496849713210   -2.24690166352935
C         1.57484723551676   -8.59770277494925   -3.93757333868634
C         2.56170352227809   -8.26415275831668   -4.86380405295107
H         2.84228127256225   -8.97999719290259   -5.62076373181431
C         3.17382320590776   -7.03053129727179   -4.80498472086930
H         3.95122762607844   -6.78623954786440   -5.51396170115234
C         0.88999520904342   -9.90159428564033   -3.96395745921241
C         4.64998054865817   -2.15059012065517   -6.07824611276996
H         4.26449286455571   -2.64856781908316   -6.96548513518200
C         5.35730554077582   -0.35267858878185   -7.50483889597193
H         4.57874174903725    0.42633758246593   -7.52838409947494
C         5.20252929603347   -1.22420110671654   -8.75170999207015
H         4.21265682675020   -1.68216164680905   -8.78097434486376
H         5.95431552256548   -2.01683481549143   -8.74225415487910
C         5.36839896131754   -0.35784988395646   -9.99900572077383
H         5.28388997883262   -0.98414658262833  -10.88855377840784
H         4.56423828499286    0.38055091831022  -10.03352963589649
O         6.77523917744367    1.08810727081902   -3.53533021000407
O        12.06095297136355   10.24181533481141   -3.19759777321456
O        10.76377883411938   10.71573875125544   -4.94749167007580
H        11.25386662771760   11.55126759650486   -4.90749012029994
N         6.82795550152433    1.01569059542092   -6.20479520663217
C         7.34912305412787    2.23316718520885   -3.60700192667901
C         7.70636490013113    2.95669688654622   -2.41500789121299
C         8.30695019347323    4.18154992338472   -2.53828143355601
H         8.55094424479313    4.74398880807379   -1.65248973253671
C         8.60833593727159    4.78551758243758   -3.77629190526865
C         8.29314783097633    4.09805493609014   -4.92221519981167
H         8.54183098592149    4.50812008962151   -5.89106874434804
C         7.67896422387627    2.83684711232641   -4.86183201394131
C         7.43070710285150    2.33498451167877   -1.05414624489914
C         7.83341221233752    3.24471778223505    0.11116885180234
H         8.90104671426616    3.45325965126557    0.10415510350670
H         7.59968343124686    2.74245136204405    1.04764992571670
H         7.28357674171437    4.18319483160517    0.08960733301376
C         5.93347857851783    2.03430369019419   -0.92315458572830
H         5.35610959682632    2.95306643077125   -1.00906117142345
H         5.72753580802474    1.58450634574766    0.04504922306685
H         5.61785603166199    1.34674167048962   -1.69984390203501
C         8.24457880569042    1.03850031420541   -0.94987508354716
H         9.30866030412130    1.25505670509019   -1.02776604914843
H         7.96913340744630    0.35430543678864   -1.74540827452885
H         8.05851867796632    0.55434408214040    0.00564415356964
C         9.25744215973783    6.09864482310247   -3.82478416527089
C        10.24429255420593    6.44468797085650   -2.89865033737968
H        10.54265399301800    5.73008952438919   -2.14625123512989
C        10.86174201492866    7.67480736013799   -2.95364030443626
H        11.62996904473531    7.94590934061672   -2.24521460372646
C        10.50661366999787    8.59796810869655   -3.93708673171046
C         9.52035948409768    8.26408442216621   -4.86383022342413
H         9.24045092273579    8.97953942775656   -5.62140119431274
C         8.90825726013095    7.03046148299406   -4.80502081146209
H         8.13122747776682    6.78598775596130   -5.51431831079961
C        11.19221664037709    9.90148204966675   -3.96418430588211
C         7.43231694596102    2.15041933436786   -6.07810084642479
H         7.81775823358260    2.64844258903607   -6.96534492846184
C         6.72449639798348    0.35274974999024   -7.50487422464562
H         7.50306074143092   -0.42626615815127   -7.52848671651431
C         6.87907255312376    1.22417795299548   -8.75184135292121
H         7.86889764007184    1.68221281157069   -8.78124401308995
H         6.12723322101976    2.01675873010434   -8.74241105759492
C         6.71325713719787    0.35775598684257   -9.99910565635628
H         6.79780449468281    0.98392986404589  -10.88874792346671
H         7.51737252528871   -0.38069995834451  -10.03346642134765

