73
CSD_code = SULBOQ | q = 1 | S = 0 | Stoichiometry = C22H44CoO4P2(1+) | MND = 6
Co       11.09077193515926    6.71963169207908    4.00756206098471
P        10.20950726190564    7.96364145765228    2.29504303265840
P         9.70832858821694    7.35027474189541    5.72227778032562
O        12.19312064978523    8.12297076219694    4.58743336734161
O        12.37777249566405    6.07029514323733    2.75593214388828
O         9.92105170012744    5.37182663299326    3.42488387552422
O        11.97118017744358    5.57705115166053    5.25874915451399
C        14.15921221642268    9.32352727602726    5.10609695531743
C        13.43754689729792    8.23197006345194    4.35823911192861
C        14.16743903467602    7.44254647296000    3.47256872522089
C        13.59287921994791    6.41866299366331    2.71791499002714
C        14.47395355252404    5.67006966994229    1.75049192932540
C         9.12069550732320    3.21108382391902    2.90048501625279
C        10.05234522219151    4.12905752112958    3.64969779109348
C        10.96407075030549    3.56097255532923    4.53673871188892
C        11.85856803069026    4.31773325441935    5.29461239256474
C        12.76200135758576    3.59196348534942    6.25886710052658
C         8.36301606760537    7.89756798166986    2.20543099758582
C        10.73690672468782    7.42325623868929    0.61429544983849
C        10.56524355258341    9.77983984165821    2.23277411318906
C         7.71381636041963    8.44161897581256    0.93772640343847
C        10.34035567643210    5.99137516068975    0.28028818007499
C        11.96861943450652   10.12062845490512    1.74490749298766
C         7.99454166212515    6.65232818552988    5.78877524880906
C        10.34312573368956    6.94291205502312    7.40331212863411
C         9.42073832203159    9.17542691172536    5.80622906180617
C         7.93153844221657    5.21203871514520    6.28392495349073
C        11.67521690780325    7.60407484361543    7.73120067292100
C         8.76711694441634    9.71368740811463    7.07409613978510
H        14.85426280144665    9.84516747868228    4.45443436710344
H        13.44430098167024   10.02606253186264    5.52541751778726
H        14.72713522875947    8.87821238656376    5.92141605610973
H        15.22073963572461    7.63466338782373    3.35703251776850
H        15.29181150346292    5.19777348447058    2.28971012642456
H        13.89631155599728    4.91011132474270    1.23148171166526
H        14.90254856651628    6.35969694881340    1.02662698691472
H         9.69088509573826    2.64258377298892    2.16823152692347
H         8.64876705678363    2.50647423446786    3.58006466713212
H         8.36064969311377    3.78926144770804    2.38273773679664
H        10.97536844483800    2.48998390371524    4.64927673983970
H        13.42593455826944    2.93051087130426    5.70639474532183
H        13.35561912423099    4.30599979511007    6.82321805874119
H        12.17245756677030    2.98381864785623    6.94095261797673
H         7.98850486835647    8.44744650691192    3.07320460541249
H         8.09695093840456    6.84672355285577    2.33925751243368
H        10.30519786446921    8.12877994053060   -0.10264390064550
H        11.82454521414477    7.51666778028327    0.57308348464743
H        10.42581299373767   10.16792107727441    3.24365377374883
H         9.82415869632570   10.25176580428949    1.58380757390948
H         7.97294295751521    9.48292407991236    0.76435082836539
H         7.99468764484975    7.86423974766249    0.06211303911023
H         6.63187189222729    8.38451935111827    1.03957097331484
H        10.69194831015367    5.73252296931330   -0.71647266841676
H        10.78830949477417    5.30749472894426    0.99502197628321
H         9.26183180425668    5.86028024913751    0.30704417844296
H        12.16496386954140   11.17943274638630    1.90005714252118
H        12.71937953608645    9.55259505986788    2.28958130042163
H        12.07899357578309    9.91258958413415    0.68400981141622
H         7.38822356124567    7.29172436618060    6.43421759720672
H         7.58732863353729    6.70873266636377    4.77730964608014
H         9.57031336619986    7.23824313413599    8.12003941203349
H        10.45690072811544    5.85748541461828    7.45066187792378
H        10.40115602545327    9.63645131172218    5.66775035873120
H         8.80683729376827    9.43444936973415    4.93927529874522
H         8.62927402457263    4.58166160643890    5.73727806313683
H         8.16412776084540    5.14832430079102    7.34357667942561
H         6.92875335063215    4.81620231457821    6.13744727142724
H        11.99128336000298    7.32260794921479    8.73378957655524
H        12.43256285586867    7.27941141139876    7.02391095188046
H        11.60417310775272    8.68760360858608    7.68648428370363
H         8.60248763968524   10.78359774827660    6.96243641038756
H         7.80172320613756    9.25035706246918    7.26102298892290
H         9.39748318645576    9.56489087028068    7.94560959443572

