34
CSD_code = SULCMN | q = 1 | S = 0 | Stoichiometry = C12H18MnO2S(1+) | MND = 8
Mn        0.51965778461372    3.21651323878309    2.05813810673221
S         2.11720355814659    1.77848879388729    2.33913259825634
O         2.02725373533968    5.21452736403820    0.53833524814012
O        -0.57211594513474    1.99244911657808   -0.36484762392576
C         1.44199705329144    4.41321360978736    1.11180769082065
C        -0.12292786295713    2.48173830825089    0.56728446491456
C        -0.22995630803036    4.90866825635441    3.32493216677589
C        -1.29325926593672    4.23750299115957    2.63271583477675
C        -1.35015826758245    2.89088214727817    3.10150857174361
C        -0.28711496096947    2.70530715952985    3.99464578298611
C         0.42190782432276    3.93823275296264    4.11153914616100
C         0.00834022186341    6.38143179427493    3.33656566603098
C         3.07701202056103    1.45130764296900    0.84159701870651
C         1.74194149190064    0.05822111661184    2.78795531460906
C         3.47796490168772    2.09395444533463    3.53550764276689
C         4.15195866838905    3.41542445288601    3.23526557101109
H         1.03312580027101    6.62043393134320    3.61239081874849
H        -0.65648980180914    6.83478064610063    4.07437690094982
H        -0.21302224550672    6.82616083019965    2.36879925567524
H        -2.07081112396476    4.73642928184705    2.06692273358896
H        -2.14643345689539    2.19036603410753    2.89941313473342
H        -0.13515893001442    1.83629518755168    4.62062357801514
H         1.18418055475429    4.15214155648552    4.84767776093241
H         3.93603479685181    0.82742529637790    1.06884998177772
H         2.41925522600592    0.95581681631095    0.13171585705671
H         3.38841026023704    2.40669133914774    0.42622073141024
H         2.63419550320206   -0.55053530833642    2.68693906934908
H         1.38152425861468    0.02688903012586    3.81141677893008
H         0.96324434681731   -0.29404475238772    2.11674519225176
H         3.00807973306386    2.10702466654252    4.51888710813757
H         4.16824972848171    1.25522851116851    3.47317655363479
H         3.41303160245710    4.21074535049494    3.13959418877097
H         4.73098555637267    3.36810416395390    2.31733795551605
H         4.82719354154339    3.67468422827866    4.04712920001344

