81
CSD_code = SULFEK | q = 0 | S = 0 | Stoichiometry = C42H35OP2Rh | MND = 6
Rh        4.36823229298534    3.08825207707879    4.79608088763302
P         5.13944797434511    1.77714265520663    3.14733749223759
P         6.26978768399578    4.18752880632147    5.22199223108235
O         1.93099586536051    0.35732617871847    5.08388414918861
C         2.30169993639906    1.48428404547572    5.41422008455954
C         2.88232706591831    1.77836466220105    6.72475946686957
C         3.21637462537830    3.04968208929237    7.08985358141818
C         3.03042854175035    4.15882543811590    6.20151190012779
C         2.32738096507216    3.95895659915669    4.99610520567927
C         2.16814642877580    2.64977881111599    4.53210937069862
C         5.14713268167342   -0.46977992110121    4.77882605016428
C         5.39161549952347   -1.79474197924367    5.09358039387513
C         5.99703156909442   -2.62422673543942    4.16527678828588
C         6.35790934538558   -2.12795516187134    2.92166815747053
C         6.11260237973271   -0.80568843678894    2.60312331777088
C         5.50220724737434    0.03190393283152    3.53378448430405
C         3.37052659054806    0.45399368969261    1.34158225547844
C         2.37181773052112    0.47242320204450    0.38170188413139
C         1.88113765021028    1.67402431019932   -0.09821185912643
C         2.37803084242423    2.87067381953778    0.39637746758048
C         3.36523091842310    2.85581867241153    1.36150146083264
C         3.88486807000048    1.64802004765617    1.82657942629307
C         7.87947183551843    1.87422680665298    2.76828892054552
C         9.05819155271251    2.17020171366000    2.11248092893545
C         9.02584876590230    2.78996524047790    0.87391845571938
C         7.80859637377342    3.11239157428386    0.30051052556790
C         6.62613944690383    2.81395610158092    0.95447389582793
C         6.64992459979852    2.18478861143374    2.19258923643226
C         7.60962258017398    1.97788525605775    6.20084112666509
C         8.64771928380235    1.29448444385218    6.80863516962396
C         9.76957659194755    1.98602994155511    7.23480076970328
C         9.84221022668320    3.36094863521041    7.07058587430870
C         8.80389592973813    4.04624570599638    6.46692665326841
C         7.68865646506323    3.35121364447957    6.00767659420483
C         8.30678394641423    5.10711932130327    3.41704711206692
C         8.68712540747739    5.77447977843374    2.26482788033635
C         7.73703634003020    6.34816153421686    1.43862195466399
C         6.39173452470892    6.24433546356784    1.75605210324090
C         6.01062077552063    5.57616684962783    2.90219115987923
C         6.96352402802425    5.01362798831217    3.74927682522023
C         6.00066179095704    6.92042004613140    5.97317276003379
C         5.80510974726636    7.92016215942357    6.91103679357255
C         5.71657156305639    7.60910120499012    8.25699273214142
C         5.82395336387381    6.28942074929368    8.66887271217570
C         6.01923196342505    5.29017172477255    7.73612346048941
C         6.11752799042671    5.59754341584851    6.38048211760728
H         2.94280051060363    0.95990689486823    7.43045635910408
H         3.59401882259311    3.25086332809881    8.08690282438925
H         3.16122792683593    5.16254817265668    6.59602703707304
H         1.97130929131907    4.80634856254737    4.41525193044708
H         1.62716352126845    2.46647763128696    3.60737189958983
H         4.66626819172712    0.18504214959923    5.49476471219364
H         5.10520805070208   -2.18094530918463    6.06051863446240
H         6.18793010586645   -3.65963960323510    4.40728591948574
H         6.82886518963254   -2.77648243018577    2.19678124324239
H         6.39351540280639   -0.41632216415187    1.63349287248842
H         3.73263177551513   -0.48949066311016    1.72151559561086
H         1.96951120660924   -0.45991491788672    0.01330723947993
H         1.10121098501841    1.68106814105323   -0.84557538775349
H         1.98351881244709    3.81073574515504    0.03700892375691
H         3.73676495795989    3.78215511542990    1.78730518160907
H         7.90631370351182    1.38512936824858    3.73189439860325
H        10.00450481040113    1.91578791693428    2.56798055301151
H         9.94634259875574    3.01985194851651    0.35777843040619
H         7.77749153338495    3.59625614972318   -0.66494788497686
H         5.68246174372021    3.05955905940685    0.49012456948284
H         6.71523936753890    1.45821501950402    5.87475574421433
H         8.58028031181986    0.22580862273250    6.95234792873614
H        10.58427731624188    1.45683186700127    7.70692089724997
H        10.71054532822831    3.90057745136287    7.42043229331122
H         8.84700334829582    5.12232244887316    6.36414868565451
H         9.05726466748305    4.65089775233163    4.04499724271808
H         9.73468749198243    5.84370911631795    2.01042138289541
H         8.04258790162100    6.86740354671070    0.54230072094362
H         5.64673159294359    6.68107659537125    1.10656274067568
H         4.96147918622020    5.47094462261946    3.16594342692127
H         6.06814579997617    7.17077792431874    4.92390439927060
H         5.72069389898487    8.94773883235889    6.58761924003101
H         5.56175016199691    8.39195691964128    8.98476255995033
H         5.75196144237120    6.04298141593705    9.71844390020764
H         6.10052604554229    4.25646805542707    8.04772382671914

