51
CSD_code = SULPAQ | q = 0 | S = 0 | Stoichiometry = C22H21FeNO5Si | MND = 8
Fe        0.14354126409610    2.45405208166199    1.68918478854285
Si        0.81024963333443    4.08466227676442    3.02838709457671
O        -0.21220806104513    4.56910782944667    4.19528654996456
O         1.18405598335774    5.45247585966938    2.14619114091756
O         2.33949915648355    3.92120693282745    3.68606211416988
O         1.11646736513455    0.43501867369196    3.50508857062415
O         2.81634113187065    2.31475911998569    0.61626118366466
N        -2.63360014690697    6.32130894026701    3.00097724217990
C        -1.32723315090406    4.01648820692173    4.71901364478739
C        -1.35243779380039    2.68205159016628    5.09446279009024
C        -2.49259579026024    2.14226890292046    5.66332953799044
C        -3.60874285888775    2.93581106454781    5.86322959476315
C        -3.58179048909786    4.26846005287585    5.48706741780756
C        -2.45238146286861    4.82572828506071    4.90733212567714
C        -2.40494323225131    6.25595909329681    4.44254206627490
C        -2.03518484351024    7.49820877244252    2.40491973200785
C        -4.04088222695532    6.20608451678231    2.68114614768491
C         2.51041761399392    5.70813650663401    2.25636066177071
C         3.19760541860755    6.70783190303139    1.60509939940235
C         4.56372466251995    6.82352885175496    1.83545593554585
C         5.21317492255094    5.96060040506870    2.69826418483622
C         4.51862918843045    4.95454938829739    3.35999174437340
C         3.16610302147645    4.83708111722522    3.12937570360994
C         0.69578228154603    1.25301771528970    2.81965203779991
C         1.74682694510974    2.37798673445624    1.02144734930694
C        -1.63202695493248    3.72402255824496    1.44286784022367
C        -0.95672087237380    3.58085426738445    0.20666116764585
C        -0.99966881187945    2.21328622444913   -0.16736495129600
C        -1.66357224254654    1.50461806596874    0.85401501093264
C        -2.03632429224026    2.43424351065130    1.85959635067453
H        -0.46562297421723    2.09056997052699    4.93750247314104
H        -2.50490293337383    1.10240414702930    5.95278302015329
H        -4.49771231940489    2.52004131971383    6.31286549668105
H        -4.45063086874240    4.88968531850836    5.65207472656978
H        -1.40641842643593    6.64861787649829    4.64201482054729
H        -3.14041860748386    6.86340053385240    4.99572719380603
H        -2.43011498648205    8.43734824618405    2.82146038154463
H        -2.22980247328788    7.48754517241098    1.33291278147226
H        -0.95783079712962    7.46255115224912    2.55957421898609
H        -4.63600818617275    7.04162104388902    3.08280650275118
H        -4.42453166402015    5.27332307308599    3.09221350652469
H        -4.16256526665922    6.18276590835633    1.59871620307917
H         2.68204214049110    7.37617933313419    0.93395810224384
H         5.12027750426506    7.59801533445027    1.33002995188015
H         6.27475644814441    6.06452865823818    2.86300591586590
H         5.01540897351258    4.27651193568208    4.03480200486042
H        -1.88413351553223    4.65315409853971    1.92969032856113
H        -0.61391783473251    4.39096149211481   -0.41402107035466
H        -0.66591187811256    1.80519451161433   -1.10744110986541
H        -1.93173302685484    0.46081564790208    0.83055150289696
H        -2.66403466583313    2.21945577825846    2.70856887211999

