77
CSD_code = SULPUL | q = 1 | S = 0 | Stoichiometry = C38H32F3IrN2P(1+) | MND = 7
Ir        2.65067292224163    7.30532051030382   11.95489052513302
C         2.18800400879976    5.52636790474942   13.23808281893399
H         1.32172144500918    5.78154091410645   13.84279210330217
C         3.40941453186750    5.97497079836864   13.67095963236480
H         3.43063050499366    6.59214792544532   14.56736836120074
C         4.71916263087347    5.30030115206959   13.34258334124170
H         4.54319546071469    4.22660464615016   13.26639908551586
H         5.40935799341971    5.45697821996309   14.17248020747260
C         5.37206933126921    5.82497693344050   12.05255575832594
H         6.09100674838282    6.60319424000742   12.31230968202861
H         5.93497948044766    5.02149951262856   11.56710754101817
C         4.38874781961209    6.39888343714951   11.05869223275648
H         4.88734932287533    7.02489714791816   10.31850730960128
C         3.22481673454392    5.72474641761696   10.61746936189832
H         2.91372817994290    5.92588807225857    9.59364382431978
C         2.87112329741109    4.32958351670455   11.09351563096297
H         2.35486514541035    3.79997436300189   10.29205097403267
H         3.79114773502680    3.78106150708540   11.29867269028525
C         1.96224349805164    4.34189785542349   12.33301062728017
H         0.92156689434610    4.35686228778419   12.00410787492800
H         2.10347838914129    3.42344623414728   12.91201113650965
C         2.49190787694920    8.65631916096674   10.51897010598249
C         3.37989902788736   10.29278181851218    8.98682544737407
H         4.28945379168103   10.75744574373031    8.64008235984886
C         2.16087553935079   10.61698556612435    8.49277831095192
H         2.05475469067966   11.36177524932906    7.72222187005008
C         1.01348643896896    9.96608452965581    9.01630068051173
C         1.19466598395805    9.00461927024967   10.02696264408323
C         0.04800064645935    8.37529009851425   10.60035723054406
C        -0.80482743768815    6.90821461993179   12.12936735857537
H        -0.62142475166990    6.20030920733344   12.92525227513048
C        -2.11989819197794    7.14318904174082   11.71494015526644
H        -2.93297885652776    6.61754146317165   12.18876996605464
C        -2.34431486905360    8.04923488155466   10.70909485538260
H        -3.34296686540099    8.26993504445498   10.36336786467974
C        -1.24406808268525    8.69867448617757   10.12258411883099
C        -1.38124976271501    9.65673474769288    9.08371881430817
H        -2.37390559000691    9.88610961102808    8.72649194027852
C        -0.29165111685834   10.27287532492747    8.55548524821846
H        -0.39875159962749   11.00761777050393    7.77225772560122
C         1.58653928042332    9.48710256182588   14.85425713293134
C         0.64173239620515    8.53268966176702   15.20835995684627
H         0.61745847318491    7.59291366860237   14.67931043774065
C        -0.26564122423893    8.77716551568935   16.22279098151949
H        -1.00380525600671    8.04582172905622   16.51147945652150
C        -0.21434124103197    9.99587974200709   16.87692478746918
C         0.71525155161122   10.96881224384087   16.54091886441514
H         0.72249393175719   11.90668658527422   17.07312568954222
C         1.61378176702869   10.70987259900740   15.52604577014508
H         2.34411013294120   11.45761560061357   15.25149172604939
C         4.37598213128935    9.21454492304720   14.36908042996119
C         4.50466551018267    9.27326780888382   15.75232444369043
H         3.62887837166451    9.33421068067971   16.38059079779504
C         5.75691126969338    9.24884592295172   16.33992378869210
H         5.87272238149872    9.29461036575916   17.41103044725038
C         6.87741991205302    9.16001734330044   15.53253693747924
C         6.77703652713688    9.07835127721473   14.15217922589857
H         7.67216313083093    8.99589642271036   13.55571060303850
C         5.52085400884446    9.09483272895261   13.58218080434417
H         5.41047947645687    8.99932799087266   12.51085980892993
C         2.67615435325255   10.79164244297974   12.68521421167201
C         3.77258198330352   11.59513636518603   12.39656393130296
H         4.75509100990642   11.32380769590601   12.75263528097496
C         3.61508136371013   12.76028096212944   11.66637130402978
H         4.45485172557069   13.39815682521106   11.44042809730332
C         2.35125630561752   13.10841389529794   11.22455201836031
C         1.23763465709399   12.33594922352402   11.51453512722089
H         0.26448968340759   12.64714797034982   11.16971993272574
C         1.41034686583400   11.17822615875319   12.24366311132045
H         0.55611960945875   10.55985719280237   12.48363197050395
F        -1.09039793138927   10.24476456190202   17.85790610364264
F         8.09114152907591    9.13583987235372   16.09683198715584
F         2.19901087420297   14.21768561676014   10.48635071584825
N         3.50810599353887    9.34675999619828    9.95241977346929
H         4.44583195978574    9.14546113234601   10.27794029685013
N         0.24479079390970    7.49706351079946   11.60422250358030
P         2.77072774609688    9.15355997351674   13.50135185299078

