72
CSD_code = SULSUP | q = 0 | S = 0 | Stoichiometry = C35H31Cl2N2PPt | MND = 4
Pt       12.37913811743785    2.56501051057768    2.78223300003462
Cl       13.99439324235953    3.60743244732600    4.11675660714679
P        10.70284800640233    1.84680849284625    1.39723866326341
Cl       10.72400068043869    3.99846500336112    3.55420104784573
N        14.51523118997638    0.49552083376261    2.95660914787314
C        13.87557298641141    1.38160402199641    2.17190578960858
C        15.52992832734570   -0.09999023449031    2.26235546446497
H        16.17081388225691   -0.83797829226635    2.69956916608511
C        15.52251373776769    0.43098258668429    1.01756365494738
H        16.15267965204119    0.24478586993929    0.17298115970245
C        14.20004555951522    2.17166862155494   -0.16147006996618
H        13.18778227482843    2.56819258163705   -0.02290866553872
H        14.22131706380241    1.55457343829136   -1.06454552989676
C        15.18418745416525    3.31064416398781   -0.26488841820080
C        16.09708214690110    3.37901659759437   -1.30687384766875
H        16.09767687231412    2.61637846155924   -2.07368407619780
C        17.00221661307147    4.42492955667052   -1.37168394002820
H        17.70812667247742    4.47388465288634   -2.18787372233957
C        17.00438941235580    5.40210415425911   -0.39147822452748
H        17.71319055288771    6.21529641131048   -0.44220700132219
C        16.09714853146352    5.33494952167560    0.65359615715543
H        16.09591719033583    6.09203069742157    1.42261145301278
C        15.18882647712263    4.29494425558719    0.71484918608796
H        14.48400398386036    4.23477074488584    1.53454648734450
C         9.17442420046321    1.06481316406922    2.00608737562470
N        14.49748364745048    1.33705538587523    0.97894755353063
C         8.33482986548230    1.82444863095115    2.81802880646066
H         8.62682406159215    2.83116201397667    3.08142025677042
C         7.15340525126540    1.28558481733538    3.29087096929186
H         6.50813652874679    1.88004338211142    3.92064799685586
C         6.79592679169777   -0.01119491082310    2.95740505946463
H         5.87081155961798   -0.43117780672428    3.32486827866527
C         7.62852753641636   -0.76877935322185    2.15099286266843
H         7.35330079259680   -1.77979448672809    1.88676562449381
C         8.81524237321114   -0.23795388406459    1.67688162867934
H         9.45337556965664   -0.83883218268581    1.04556212864757
C        11.26452187488474    0.65723344389829    0.12665926089153
C        11.91400350239675   -0.48761974790128    0.58410964751955
H        11.99611476665062   -0.64658130612175    1.65175024984613
C        12.43381574317843   -1.40459706451439   -0.30837825620241
H        12.93301870048776   -2.29105913903781    0.05537644142331
C        12.31696960272099   -1.18316794103666   -1.67244180932255
H        12.72721625991803   -1.89549101019233   -2.37291595846811
C        11.67261747706029   -0.04813414554421   -2.13413661216300
H        11.57813964886335    0.12480708227028   -3.19624616657844
C        11.14838013562959    0.87155372618382   -1.24076862157109
H        10.65191759368241    1.75799258023347   -1.60884154127913
C        10.07241778699427    3.23293063541968    0.40686023570569
C         8.83726701076002    3.17648457860721   -0.23142015783921
H         8.21470651157578    2.29848040673439   -0.12400949766232
C         8.40742615342320    4.24799505027480   -0.99330092908835
H         7.44486615182109    4.20618526601540   -1.48213299528355
C         9.20419219902060    5.37407647593818   -1.12514216940713
H         8.86030072754971    6.21048596797978   -1.71563499707854
C        10.43514460983682    5.43267592459391   -0.49178434750755
H        11.05247033285456    6.31357292699594   -0.58561978637041
C        10.86822205851231    4.36544732731750    0.27249031455441
H        11.81383141234165    4.41721763070919    0.80290583588299
C        14.19526768437528    0.25446437765418    4.34926081842315
H        14.46066827380061    1.15018979928476    4.92062361181885
H        14.79981807122908   -0.58939406159029    4.69154209889192
C        12.72337039788122   -0.03678801431686    4.51395194773919
C        12.20335532097786   -1.25308341666369    4.08727667252644
H        12.86421053873356   -1.99850474624662    3.66368763340105
C        10.85107176424772   -1.52114812022221    4.21496069436369
H        10.45707655414591   -2.47125963914462    3.88423331790202
C        10.00639454842588   -0.57345697286415    4.76712156334342
H         8.95232991634878   -0.78437460756707    4.86785432077752
C        10.51508857839479    0.63999161560945    5.19685764139813
H         9.86058391508397    1.37802557019167    5.63393498020758
C        11.86940070947134    0.91421128986738    5.07038830104142
H        12.26998466099256    1.83373838803680    5.47644622810523

