100
CSD_code = SULTUP | q = 0 | S = 0 | Stoichiometry = C51H41BrClNO2P2Ru | MND = 6
Ru        7.14304752791945    8.48918192187964    3.76706905915565
Br        1.02542495713106    9.90994269740967    7.85488671705602
Cl        7.22231995310290    8.39005032985213    1.37246536051819
P         7.00569054345475    6.22979450887721    3.20512927022948
P         7.07965627141485   10.81333928615445    4.00621866863929
O         5.06391883059983    8.60565033075853    3.62489883500910
O        10.12643852686068    8.56961891839911    3.73287058442576
N         6.94360066646100    8.22590447290030    5.79935169853936
C         4.25469302516711    8.88464255159684    4.56525346825131
C         2.93076032599721    9.28765228290906    4.22730242371822
H         2.69300473094070    9.36374071680199    3.17703232987356
C         1.99777192395524    9.59275597844524    5.17592919423499
H         1.00733094788747    9.91450637325467    4.89100907024990
C         2.33264553506864    9.48179006496148    6.52804752742015
C         3.58116826400414    9.07269945759034    6.91256251390812
H         3.82694485416024    8.98616409797609    7.96192977452777
C         4.57136176157640    8.78235395028431    5.95889423484174
C         5.84867064413217    8.37871374984936    6.45618679945020
H         5.86752253600221    8.19739028941033    7.53229864727180
C         8.14487735197059    7.81476819717974    6.51717632816378
H         8.86649794165528    8.63848060944445    6.43144218058677
H         8.55277490303814    6.94613640442704    5.98462121315772
C         7.96256177033947    7.45255205148984    7.96852318401133
C         8.09507716484447    8.41576875860138    8.96192997143527
H         8.33601968749572    9.43233649249371    8.68709069985676
C         7.91378794574465    8.07904437316203   10.29170655497098
H         8.01794435872223    8.83539328977636   11.05542074698856
C         7.59965975574507    6.77669802017490   10.64250381047309
H         7.45707433260110    6.51506374922727   11.68029214989746
C         7.47199070180406    5.81096718882048    9.65849750920469
H         7.23124537283916    4.79277809443759    9.92551221324680
C         7.65379968044109    6.14648005892824    8.32854891837089
H         7.55387599714985    5.39206089539435    7.56244271847893
C         8.97846352544387    8.50635343059532    3.77070344675006
C         5.71663704935121    5.59308793211414    2.08343710089496
C         4.70277641092521    6.38985164632568    1.57058470528010
H         4.67446181778285    7.44317974824476    1.80756778399949
C         3.73687422122213    5.83152972890066    0.75019079560817
H         2.95077009444358    6.45468385854569    0.34942889910584
C         3.77742898832427    4.48373808191173    0.43996148913656
H         3.02545587660057    4.05260691996091   -0.20476785456356
C         4.78431185345779    3.68362439881926    0.95875487850049
H         4.81696436542957    2.63027270066464    0.72042585957869
C         5.74745147645967    4.23171520421109    1.78236353903016
H         6.53255104785886    3.60870364031370    2.19125942735146
C         6.65699275481740    5.07042222978440    4.58039523190296
C         5.47548206111965    5.34243706652414    5.26802687113932
H         4.87447601288848    6.19124048990519    4.96378282927708
C         5.06194691345928    4.53303201553312    6.30736987721740
H         4.14570540600474    4.75482340564230    6.83469406121650
C         5.82598009490789    3.43347753883762    6.66801866568646
H         5.50825954286555    2.79705290907212    7.48059815236700
C         6.99424517089723    3.14885631297160    5.98085846004407
H         7.58543133988132    2.28679716549416    6.25474517444405
C         7.41188413559351    3.96113837395284    4.93901752279816
H         8.31998216155017    3.72216582575575    4.40363008981623
C         8.54851360080717    5.62145816478650    2.46508394985087
C         8.65226836287814    5.36770305935319    1.10204327457502
H         7.78812485425243    5.49086035309710    0.46537963011673
C         9.86650963572591    4.98370160786046    0.56162828604754
H         9.94241384359545    4.79242048338454   -0.49859197898729
C        10.98241284461134    4.85424308217874    1.37117248334537
H        11.92869739207989    4.55500711803340    0.94524583623467
C        10.88917892052313    5.12470006461446    2.72700756610990
H        11.76140998598405    5.04148233832271    3.35890936392037
C         9.68025475496427    5.51507982304927    3.27053347337541
H         9.61211946623532    5.74983333839176    4.32630457121405
C         5.57817313861024   11.64271819712765    3.39455553415616
C         5.06672519148482   11.15090604649024    2.19536938105142
H         5.55026283213650   10.30853356768755    1.71525162612514
C         3.94724100560822   11.73241150521530    1.63050432818807
H         3.54925696392458   11.34375509414138    0.70445337493876
C         3.33742198543432   12.81060748116745    2.25102702935488
H         2.45577006452811   13.25912747515019    1.81690728134341
C         3.86583220778195   13.32279657070262    3.42416108205442
H         3.40276540180109   14.17571831202950    3.89909542956041
C         4.98868897034883   12.74985056410091    3.99469687497973
H         5.39903116064303   13.16960682209368    4.90202807379670
C         8.30887942793541   11.83421314880909    3.12652703641180
C         9.01884160597763   11.30877175230155    2.05441517625624
H         8.86252881482946   10.28065466347471    1.75617662720051
C         9.91317006506472   12.10697565660329    1.36127457105326
H        10.46537610649737   11.69271492969328    0.53111126979093
C        10.09695603186633   13.42843927032994    1.72908811373116
H        10.79701659971560   14.04920370619761    1.18944066415481
C         9.37630965096625   13.96001458436288    2.78791661337037
H         9.51180691014035   14.99399355643382    3.07041231317221
C         8.48107248972014   13.17026828743592    3.48228405054007
H         7.91821663943638   13.58555449154477    4.30709842632190
C         7.30803267368254   11.35429168901843    5.72914355074433
C         6.24170124737047   11.47377889260156    6.61590736445957
H         5.23096240348683   11.31261089919857    6.26804649721364
C         6.47056846857642   11.80087866706803    7.94074374487055
H         5.63606320653740   11.90099977073125    8.61925210093478
C         7.76356221721179   12.00023756683628    8.39592025812241
H         7.93904315750628   12.26350180308142    9.42866625524233
C         8.83328047321972   11.84971417967817    7.52606116962365
H         9.84407710323629   11.98806523822095    7.88206088856673
C         8.60873131639300   11.51734299299025    6.20307967120682
H         9.44093969505790   11.39164239721983    5.52211578290656

