52
CSD_code = SULVIE | q = 0 | S = 0 | Stoichiometry = C12H25CdN3O11 | MND = 7
Cd        3.93466980373797    3.27211608114705    7.51638280197499
O         2.89405239164448    1.47376543984203    6.13609970298534
O         4.81392707220123    0.97764415058725    8.15939143538128
O         4.81198257197509    3.23773400409839    9.92978877475234
O         4.53202930220539    5.94970317534205    8.70799878473339
O         3.76091474737566    6.96856698782386    5.93371331961043
O         6.07013884799237    3.63669670465476    7.48743230817507
O         5.58380744693884    2.52740889911392    5.73915342337986
O         7.60064626012546    2.60971660766402    6.42272931816818
O         2.37731050455027    2.29127186998441    8.84818216991263
O         2.13964909310205    4.34305975558819    8.34134588815059
O         0.86017034881796    3.45166796816803    9.78818287184230
N         3.05993094001135    4.27841652678419    5.65915036721425
N         6.43850749074539    2.90440014825217    6.54084637055781
N         1.77697521497628    3.35793338234165    9.01241215348412
C         2.10552019511671    3.39125020755092    4.99989668074376
C         2.69585072491095    1.99063024296626    4.83643465684043
C         3.66531206204094    0.29029853681028    6.17593537513266
C         3.96042582446845   -0.02346955676229    7.63652202219798
C         4.95602126589980    0.88168899689713    9.56396543803531
C         5.67015723039188    2.12320013163213   10.08088013419732
C         5.42769119951285    4.44376258044199   10.33820370175499
C         4.48647560908169    5.61070523991369   10.07675872504828
C         3.68670035018036    7.04477821902041    8.39790855314162
C         4.10663918615650    7.70673780680304    7.07966479507116
C         4.73056178215488    6.01840993962319    5.51431477061056
C         3.99584602700971    4.92878180441223    4.74368247988515
H         2.54755171880998    5.03876017773303    6.10920255725639
H         1.21715383995371    3.30506154691766    5.63185759682619
H         1.80882632861601    3.78069338430797    4.01583108475995
H         3.65129771096613    2.03736061730543    4.30057184242117
H         1.99783089762518    1.34758475573610    4.27931480502088
H         3.10200547714113   -0.54087142150262    5.72632251626240
H         4.60588665359081    0.43630177392364    5.63159095276133
H         4.44836077565227   -1.00612297595325    7.71694474937814
H         3.01611947923127   -0.03003591159267    8.19504039548353
H         3.96565754238113    0.81985276168239   10.03293500303356
H         5.54298010352373   -0.01458352409202    9.81605400093326
H         6.59886335203180    2.28092692052242    9.51619364309585
H         5.91272796933013    1.98646122252647   11.14626674576952
H         5.65393229812909    4.38785257019402   11.41429758276814
H         6.35371187535368    4.60277349900834    9.77191565098466
H         4.80827389518197    6.47549668381762   10.67935833282564
H         3.46530617461589    5.33604489696336   10.37384213469319
H         2.64559098410815    6.70558439106181    8.33141034849255
H         3.76564981013355    7.80192923057641    9.19245831174192
H         5.18425374964848    7.90751619351799    7.09984507414923
H         3.56779291676355    8.65534482566024    6.99312483217702
H         5.47459135942851    6.50846974389274    4.86941833089797
H         5.23347481894389    5.58405834453263    6.38400521549551
H         4.70923353602238    4.19927784044767    4.35651805847102
H         3.45501323949349    5.39088660211270    3.90440321131883

