83
CSD_code = SULXED | q = 1 | S = 0 | Stoichiometry = C43H34N4PRu(1+) | MND = 8
Ru       -0.49889870010907    6.20992885571788    5.99980594292884
P         1.13090729270953    7.40498244795136    7.11537364944133
N        -1.95043583106307    7.25035898178579    6.90197042249178
N        -0.71386559140266    7.70205084823199    4.82619154258455
C        -2.51392334398063    6.89924301170358    8.05952198736337
H        -2.15690198062057    5.98294840457056    8.50934279791695
C        -3.48495521442910    7.65377622980783    8.68382511697936
H        -3.91140557886073    7.31894764280131    9.61488491841384
C        -3.88113264867183    8.85194134447021    8.09902237552698
H        -4.61573239194318    9.48162668764759    8.57414721191448
C        -3.31255819427975    9.22471163521273    6.89765455458846
H        -3.58561925355683   10.15344299513126    6.42771513826570
C        -2.36522497080806    8.39548599742731    6.29587581304385
N         0.09625904581126    7.74913753648734    3.81513771378256
C         0.06039890255171    8.76779438950549    2.96740034795182
C        -0.90449639082731    9.77339791116099    3.09332966723380
H        -0.93640629512059   10.56753670700008    2.36659450484828
C        -1.82678582223635    9.69843375728976    4.12619525772464
C        -1.66816804334678    8.64242430077262    5.04547205975050
C         2.82571205704853    7.02419465056323    6.58071910634710
C         3.05283603052552    6.94436814967661    5.20681481597364
H         2.22518920049929    7.09961045087993    4.52587904575918
C         4.31829264999385    6.66181872615799    4.72908891870375
H         4.49368413445687    6.61048585588452    3.66449197250079
C         5.35971019391207    6.43864121773853    5.61708370579094
H         6.34690083554375    6.21134217414061    5.24499128243907
C         5.13177598260720    6.49827445321623    6.98181515221379
H         5.94064738608293    6.31500674438438    7.67264947449781
C         3.86923643913192    6.79097424550968    7.46932422773530
H         3.69826900470852    6.83315997304960    8.53516940999711
C         1.20820182502674    7.32570065005758    8.92821113046836
C         1.82320770696069    8.33197408961816    9.67034894182321
H         2.24220851036992    9.19181776395111    9.16590939317306
C         1.89590476867883    8.22232042973878   11.04658312938979
H         2.37363664460820    9.00112680632573   11.62143561572795
C         0.67919683166092    6.21468514326236    9.57534251835900
H         0.21670944316938    5.43323907666106    8.98471157196331
C         0.75533748158246    6.10974050212879   10.95266121063612
H         0.34556032719547    5.24540278800930   11.45327080886363
C         0.94688062854029    9.19385383625399    6.80740056728685
C        -0.04736129762556    9.86517592516085    7.52008368326916
H        -0.57647776168899    9.34772509765495    8.31156605987021
C        -0.33191745159962   11.18837302897099    7.24120212268803
H        -1.09578322537293   11.70414150039202    7.80345036510049
C         0.66622897078696    4.53399461012894    5.01518055094898
H         1.63073230607569    4.52322871134865    4.52930668765889
C        -0.58570626193008    4.62079379938106    4.38101434047721
H        -0.75309780285079    4.78041130255776    3.32477402042209
C        -0.95525906623373    4.06640636722288    6.58416958702377
H        -1.44569364145519    3.66999915644399    7.46265968875227
C         0.43392953597653    4.17922040577509    6.38675042084741
H         1.20709497200267    3.88230706932744    7.08577409728469
C        -1.59797335111408    4.38721672900202    5.35077134636130
H        -2.65014292849157    4.24601282954745    5.13966052654658
C        -4.99129205742133   12.52941135503976    4.05181605878225
H        -5.79427372116333   13.24882049718600    4.01230793361435
C        -2.64445031804590   12.03937405687588    4.15434712696293
H        -1.61695443704436   12.36734802621926    4.19870023287336
C        -2.92439106577854   10.67653208587807    4.15675812771706
C        -5.27480860298358   11.17301613151810    4.02767747059975
H        -6.29721204483499   10.83421933426254    3.96131964492434
C        -3.67623821348654   12.95988700154611    4.11684211402744
H        -3.45296509881312   14.01560721582968    4.12785947665077
C         1.84383701668428    7.68982887301674    1.59439478278033
H         1.71328137453042    6.77457286315942    2.14863313045540
C         2.76946644828164    7.79524469541262    0.56979487121519
H         3.39481056098922    6.95473596912542    0.30706338109683
C         1.05470683143725    8.80043537228134    1.89166949624788
C        -4.24892233179871   10.24806353239719    4.08450331458211
H        -4.46631200332372    9.18994528454775    4.05790023752548
C         1.64208534107926    9.86423660915790    5.80650712609278
H         2.42115530002788    9.35831865505940    5.25509557841335
C         1.34973096115365   11.18859060754898    5.52895718870125
H         1.89665381403788   11.70326494387247    4.75337488208667
C         1.36192917945275    7.11487640434041   11.68822341197057
H         1.42207049136363    7.03513967691099   12.76269399649713
C         0.36414378682724   11.85055020098783    6.24200860580283
H         0.14721971388523   12.88662165057747    6.03122418614637
C         2.87485238967524    8.99502734352633   -0.11596027398457
H         3.58220549721960    9.11865793993447   -0.92006459529253
C         2.03785330642419   10.04124176757086    0.25564827888992
H         2.07805002161895   10.99692682746081   -0.24933092849329
N         1.15414179152589    9.95099113400912    1.22770862341477

